
 *******************************************************************************

         NASA-GLENN CHEMICAL EQUILIBRIUM PROGRAM CEA2, FEBRUARY 5, 2004
                   BY  BONNIE MCBRIDE AND SANFORD GORDON
      REFS: NASA RP-1311, PART I, 1994 AND NASA RP-1311, PART II, 1996

 *******************************************************************************



  
 ### CEA analysis performed on Tue 29-Apr-2025 00:12:32
  
 # Problem Type: "Rocket" (Infinite Area Combustor)
  
 prob case = _______________4819 ro equilibrium
  
 # Pressure (1 value):
 p,psia= 300
 # Chamber/Exit Pressure Ratio (1 value):
 pi/p= 20.4139
  
 # Oxidizer/Fuel Wt. ratio (25 values):
 o/f = 2, 2.25, 2.5, 2.75, 3, 3.25, 3.5, 3.75, 4, 4.25, 4.5, 4.75, 5, 5.25, 5.5, 
 5.75, 6, 6.25, 6.5, 6.75, 7, 7.25, 7.5, 7.75, 8
  
 # You selected the following fuels and oxidizers:
 reac
 fuel C3H8O,2propanol   wt%=100.0000
 oxid N2O               wt%=100.0000
  
 # You selected these options for output:
 # short version of output
 output short
 # Proportions of any products will be expressed as Mass Fractions.
 output massf
 # Heat will be expressed as siunits
 output siunits
 # Plot parameters:
 output plot gam son cp t isp cf rho
  
  
 # Input prepared by this script:/var/www/sites/cearun/cgi-bin/CEARUN/prepareInpu
 tFile.cgi
  
 ### IMPORTANT:  The following line is the end of your CEA input file!
 end





              THEORETICAL ROCKET PERFORMANCE ASSUMING EQUILIBRIUM

           COMPOSITION DURING EXPANSION FROM INFINITE AREA COMBUSTOR

 Pin =   300.0 PSIA
 CASE = _______________

             REACTANT                    WT FRACTION      ENERGY      TEMP
                                          (SEE NOTE)     KJ/KG-MOL      K  
 FUEL        C3H8O,2propanol              1.0000000         0.000      0.000
 OXIDANT     N2O                          1.0000000         0.000      0.000

 O/F=    2.00000  %FUEL= 33.333333  R,EQ.RATIO= 2.680392  PHI,EQ.RATIO= 3.295741

                 CHAMBER   THROAT     EXIT
 Pinf/P            1.0000   1.8318   20.414
 P, BAR            20.684   11.292   1.0132
 T, K             1891.78  1648.18  1001.81
 RHO, KG/CU M    2.4365 0 1.5268 0 2.3001-1
 H, KJ/KG        -0.00000  -480.10 -1853.52
 U, KJ/KG         -848.94 -1219.68 -2294.04
 G, KJ/KG        -22164.9 -19790.8 -13591.1
 S, KJ/(KG)(K)    11.7164  11.7164  11.7164

 M, (1/n)          18.528   18.529   18.908
 (dLV/dLP)t      -1.00014 -1.00017 -1.03053
 (dLV/dLT)p        1.0012   1.0012   1.4457
 Cp, KJ/(KG)(K)    1.9917   1.9560   4.7897
 GAMMAs            1.2915   1.2983   1.1924
 SON VEL,M/SEC     1047.1    979.9    724.8
 MACH NUMBER        0.000    1.000    2.657

 PERFORMANCE PARAMETERS

 Ae/At                      1.0000   3.3783
 CSTAR, M/SEC               1382.5   1382.5
 CF                         0.7088   1.3926
 Ivac, M/SEC                1734.6   2154.2
 Isp, M/SEC                  979.9   1925.4


 MASS FRACTIONS

 CH4              0.00001  0.00002  0.00870
 *CO              0.44687  0.44259  0.38532
 *CO2             0.03013  0.03684  0.10306
 *H               0.00001  0.00000  0.00000
 HCN              0.00003  0.00002  0.00000
 *H2              0.03791  0.03822  0.03799
 H2O              0.06072  0.05798  0.04061
 NH3              0.00005  0.00005  0.00006
 *N2              0.42426  0.42427  0.42427

  * THERMODYNAMIC PROPERTIES FITTED TO 20000.K

 NOTE. WEIGHT FRACTION OF FUEL IN TOTAL FUELS AND OF OXIDANT IN TOTAL OXIDANTS










              THEORETICAL ROCKET PERFORMANCE ASSUMING EQUILIBRIUM

           COMPOSITION DURING EXPANSION FROM INFINITE AREA COMBUSTOR

 Pin =   300.0 PSIA
 CASE = _______________

             REACTANT                    WT FRACTION      ENERGY      TEMP
                                          (SEE NOTE)     KJ/KG-MOL      K  
 FUEL        C3H8O,2propanol              1.0000000         0.000      0.000
 OXIDANT     N2O                          1.0000000         0.000      0.000

 O/F=    2.25000  %FUEL= 30.769231  R,EQ.RATIO= 2.455707  PHI,EQ.RATIO= 2.929547

                 CHAMBER   THROAT     EXIT
 Pinf/P            1.0000   1.8249   20.414
 P, BAR            20.684   11.334   1.0132
 T, K             2049.90  1795.03  1048.80
 RHO, KG/CU M    2.3531 0 1.4726 0 2.2613-1
 H, KJ/KG         0.00000  -495.26 -1928.06
 U, KJ/KG         -879.04 -1264.93 -2376.14
 G, KJ/KG        -23638.1 -21194.4 -14022.1
 S, KJ/(KG)(K)    11.5314  11.5314  11.5314

 M, (1/n)          19.389   19.391   19.461
 (dLV/dLP)t      -1.00013 -1.00007 -1.00681
 (dLV/dLT)p        1.0021   1.0007   1.0943
 Cp, KJ/(KG)(K)    1.9690   1.9248   2.4516
 GAMMAs            1.2797   1.2870   1.2529
 SON VEL,M/SEC     1060.6    995.3    749.3
 MACH NUMBER        0.000    1.000    2.621

 PERFORMANCE PARAMETERS

 Ae/At                      1.0000   3.3006
 CSTAR, M/SEC               1411.3   1411.3
 CF                         0.7052   1.3914
 Ivac, M/SEC                1768.6   2191.9
 Isp, M/SEC                  995.3   1963.7


 MASS FRACTIONS

 CH4              0.00000  0.00000  0.00148
 *CO              0.40549  0.40096  0.35510
 *CO2             0.03886  0.04598  0.11401
 *H               0.00001  0.00000  0.00000
 HCN              0.00002  0.00001  0.00000
 *H2              0.03198  0.03232  0.03488
 H2O              0.08299  0.08008  0.05388
 NH3              0.00003  0.00003  0.00004
 *N2              0.44061  0.44061  0.44061
 *OH              0.00001  0.00000  0.00000

  * THERMODYNAMIC PROPERTIES FITTED TO 20000.K

 NOTE. WEIGHT FRACTION OF FUEL IN TOTAL FUELS AND OF OXIDANT IN TOTAL OXIDANTS










              THEORETICAL ROCKET PERFORMANCE ASSUMING EQUILIBRIUM

           COMPOSITION DURING EXPANSION FROM INFINITE AREA COMBUSTOR

 Pin =   300.0 PSIA
 CASE = _______________

             REACTANT                    WT FRACTION      ENERGY      TEMP
                                          (SEE NOTE)     KJ/KG-MOL      K  
 FUEL        C3H8O,2propanol              1.0000000         0.000      0.000
 OXIDANT     N2O                          1.0000000         0.000      0.000

 O/F=    2.50000  %FUEL= 28.571429  R,EQ.RATIO= 2.265777  PHI,EQ.RATIO= 2.636593

                 CHAMBER   THROAT     EXIT
 Pinf/P            1.0000   1.8189   20.414
 P, BAR            20.684   11.372   1.0132
 T, K             2190.68  1927.25  1128.69
 RHO, KG/CU M    2.2930 0 1.4333 0 2.1815-1
 H, KJ/KG        -0.00000  -506.57 -1993.42
 U, KJ/KG         -902.05 -1299.96 -2457.90
 G, KJ/KG        -24878.5 -22393.5 -14811.4
 S, KJ/(KG)(K)    11.3565  11.3565  11.3565

 M, (1/n)          20.192   20.197   20.204
 (dLV/dLP)t      -1.00020 -1.00007 -1.00060
 (dLV/dLT)p        1.0042   1.0012   1.0075
 Cp, KJ/(KG)(K)    1.9578   1.9018   1.8938
 GAMMAs            1.2689   1.2770   1.2820
 SON VEL,M/SEC     1069.9   1006.6    771.7
 MACH NUMBER        0.000    1.000    2.588

 PERFORMANCE PARAMETERS

 Ae/At                      1.0000   3.3122
 CSTAR, M/SEC               1433.7   1433.7
 CF                         0.7021   1.3927
 Ivac, M/SEC                1794.8   2229.3
 Isp, M/SEC                 1006.6   1996.7


 MASS FRACTIONS

 CH4              0.00000  0.00000  0.00011
 *CO              0.36965  0.36510  0.32249
 *CO2             0.04689  0.05406  0.12070
 *H               0.00003  0.00001  0.00000
 HCN              0.00001  0.00001  0.00000
 *H2              0.02690  0.02725  0.03027
 H2O              0.10184  0.09894  0.07179
 NH3              0.00002  0.00002  0.00002
 *N2              0.45461  0.45461  0.45461
 *OH              0.00003  0.00001  0.00000

  * THERMODYNAMIC PROPERTIES FITTED TO 20000.K

 NOTE. WEIGHT FRACTION OF FUEL IN TOTAL FUELS AND OF OXIDANT IN TOTAL OXIDANTS










              THEORETICAL ROCKET PERFORMANCE ASSUMING EQUILIBRIUM

           COMPOSITION DURING EXPANSION FROM INFINITE AREA COMBUSTOR

 Pin =   300.0 PSIA
 CASE = _______________

             REACTANT                    WT FRACTION      ENERGY      TEMP
                                          (SEE NOTE)     KJ/KG-MOL      K  
 FUEL        C3H8O,2propanol              1.0000000         0.000      0.000
 OXIDANT     N2O                          1.0000000         0.000      0.000

 O/F=    2.75000  %FUEL= 26.666667  R,EQ.RATIO= 2.103117  PHI,EQ.RATIO= 2.396902

                 CHAMBER   THROAT     EXIT
 Pinf/P            1.0000   1.8134   20.414
 P, BAR            20.684   11.406   1.0132
 T, K             2316.43  2046.91  1210.96
 RHO, KG/CU M    2.2490 0 1.4041 0 2.1088-1
 H, KJ/KG        -0.00000  -514.97 -2047.21
 U, KJ/KG         -919.71 -1327.31 -2527.69
 G, KJ/KG        -25928.3 -23426.4 -15601.7
 S, KJ/(KG)(K)    11.1932  11.1932  11.1932

 M, (1/n)          20.941   20.951   20.955
 (dLV/dLP)t      -1.00034 -1.00011 -1.00007
 (dLV/dLT)p        1.0076   1.0024   1.0008
 Cp, KJ/(KG)(K)    1.9587   1.8862   1.8205
 GAMMAs            1.2586   1.2679   1.2791
 SON VEL,M/SEC     1075.9   1014.9    784.0
 MACH NUMBER        0.000    1.000    2.581

 PERFORMANCE PARAMETERS

 Ae/At                      1.0000   3.3395
 CSTAR, M/SEC               1451.6   1451.6
 CF                         0.6992   1.3940
 Ivac, M/SEC                1815.3   2260.9
 Isp, M/SEC                 1014.9   2023.5


 MASS FRACTIONS

 CH4              0.00000  0.00000  0.00001
 *CO              0.33794  0.33346  0.29305
 *CO2             0.05488  0.06192  0.12540
 *H               0.00005  0.00002  0.00000
 HCN              0.00001  0.00000  0.00000
 *H2              0.02255  0.02290  0.02582
 H2O              0.11771  0.11492  0.08897
 NH3              0.00001  0.00001  0.00001
 *NO              0.00001  0.00000  0.00000
 *N2              0.46673  0.46674  0.46674
 *OH              0.00010  0.00002  0.00000

  * THERMODYNAMIC PROPERTIES FITTED TO 20000.K

 NOTE. WEIGHT FRACTION OF FUEL IN TOTAL FUELS AND OF OXIDANT IN TOTAL OXIDANTS










              THEORETICAL ROCKET PERFORMANCE ASSUMING EQUILIBRIUM

           COMPOSITION DURING EXPANSION FROM INFINITE AREA COMBUSTOR

 Pin =   300.0 PSIA
 CASE = _______________

             REACTANT                    WT FRACTION      ENERGY      TEMP
                                          (SEE NOTE)     KJ/KG-MOL      K  
 FUEL        C3H8O,2propanol              1.0000000         0.000      0.000
 OXIDANT     N2O                          1.0000000         0.000      0.000

 O/F=    3.00000  %FUEL= 25.000000  R,EQ.RATIO= 1.962248  PHI,EQ.RATIO= 2.197160

                 CHAMBER   THROAT     EXIT
 Pinf/P            1.0000   1.8083   20.414
 P, BAR            20.684   11.438   1.0132
 T, K             2428.95  2155.61  1287.93
 RHO, KG/CU M    2.2164 0 1.3821 0 2.0498-1
 H, KJ/KG         0.00000  -521.10 -2091.56
 U, KJ/KG         -933.22 -1348.70 -2585.87
 G, KJ/KG        -26818.8 -24321.9 -16312.0
 S, KJ/(KG)(K)    11.0413  11.0413  11.0413

 M, (1/n)          21.641   21.657   21.664
 (dLV/dLP)t      -1.00055 -1.00018 -1.00002
 (dLV/dLT)p        1.0125   1.0043   1.0001
 Cp, KJ/(KG)(K)    1.9722   1.8786   1.7839
 GAMMAs            1.2487   1.2594   1.2742
 SON VEL,M/SEC     1079.5   1020.9    793.6
 MACH NUMBER        0.000    1.000    2.577

 PERFORMANCE PARAMETERS

 Ae/At                      1.0000   3.3655
 CSTAR, M/SEC               1465.9   1465.9
 CF                         0.6964   1.3952
 Ivac, M/SEC                1831.6   2287.0
 Isp, M/SEC                 1020.9   2045.3


 MASS FRACTIONS

 *CO              0.30931  0.30497  0.26695
 *CO2             0.06325  0.07007  0.12981
 *H               0.00008  0.00003  0.00000
 *H2              0.01879  0.01915  0.02191
 H2O              0.13095  0.12836  0.10396
 NH3              0.00001  0.00001  0.00001
 *NO              0.00003  0.00000  0.00000
 *N2              0.47734  0.47735  0.47736
 *OH              0.00023  0.00005  0.00000

  * THERMODYNAMIC PROPERTIES FITTED TO 20000.K

 NOTE. WEIGHT FRACTION OF FUEL IN TOTAL FUELS AND OF OXIDANT IN TOTAL OXIDANTS










              THEORETICAL ROCKET PERFORMANCE ASSUMING EQUILIBRIUM

           COMPOSITION DURING EXPANSION FROM INFINITE AREA COMBUSTOR

 Pin =   300.0 PSIA
 CASE = _______________

             REACTANT                    WT FRACTION      ENERGY      TEMP
                                          (SEE NOTE)     KJ/KG-MOL      K  
 FUEL        C3H8O,2propanol              1.0000000         0.000      0.000
 OXIDANT     N2O                          1.0000000         0.000      0.000

 O/F=    3.25000  %FUEL= 23.529412  R,EQ.RATIO= 1.839065  PHI,EQ.RATIO= 2.028148

                 CHAMBER   THROAT     EXIT
 Pinf/P            1.0000   1.8034   20.414
 P, BAR            20.684   11.469   1.0132
 T, K             2529.63  2254.65  1359.76
 RHO, KG/CU M    2.1924 0 1.3655 0 2.0013-1
 H, KJ/KG         0.00000  -525.44 -2128.49
 U, KJ/KG         -943.44 -1365.40 -2634.78
 G, KJ/KG        -27573.4 -25101.6 -16950.2
 S, KJ/(KG)(K)    10.9002  10.9002  10.9002

 M, (1/n)          22.294   22.318   22.330
 (dLV/dLP)t      -1.00085 -1.00029 -1.00001
 (dLV/dLT)p        1.0191   1.0070   1.0001
 Cp, KJ/(KG)(K)    1.9994   1.8797   1.7542
 GAMMAs            1.2390   1.2511   1.2695
 SON VEL,M/SEC     1081.2   1025.1    801.7
 MACH NUMBER        0.000    1.000    2.574

 PERFORMANCE PARAMETERS

 Ae/At                      1.0000   3.3900
 CSTAR, M/SEC               1477.7   1477.7
 CF                         0.6937   1.3963
 Ivac, M/SEC                1844.5   2308.6
 Isp, M/SEC                 1025.1   2063.2


 MASS FRACTIONS

 *CO              0.28301  0.27884  0.24331
 *CO2             0.07226  0.07882  0.13465
 *H               0.00012  0.00004  0.00000
 *H2              0.01556  0.01591  0.01850
 H2O              0.14180  0.13954  0.11682
 NH3              0.00001  0.00001  0.00000
 *NO              0.00008  0.00001  0.00000
 *N2              0.48668  0.48671  0.48672
 *OH              0.00048  0.00012  0.00000

  * THERMODYNAMIC PROPERTIES FITTED TO 20000.K

 NOTE. WEIGHT FRACTION OF FUEL IN TOTAL FUELS AND OF OXIDANT IN TOTAL OXIDANTS










              THEORETICAL ROCKET PERFORMANCE ASSUMING EQUILIBRIUM

           COMPOSITION DURING EXPANSION FROM INFINITE AREA COMBUSTOR

 Pin =   300.0 PSIA
 CASE = _______________

             REACTANT                    WT FRACTION      ENERGY      TEMP
                                          (SEE NOTE)     KJ/KG-MOL      K  
 FUEL        C3H8O,2propanol              1.0000000         0.000      0.000
 OXIDANT     N2O                          1.0000000         0.000      0.000

 O/F=    3.50000  %FUEL= 22.222222  R,EQ.RATIO= 1.730434  PHI,EQ.RATIO= 1.883280

                 CHAMBER   THROAT     EXIT
 Pinf/P            1.0000   1.7986   20.414
 P, BAR            20.684   11.500   1.0132
 T, K             2619.50  2345.06  1427.05
 RHO, KG/CU M    2.1751 0 1.3530 0 1.9606-1
 H, KJ/KG        -0.00000  -528.26 -2159.49
 U, KJ/KG         -950.96 -1378.27 -2676.30
 G, KJ/KG        -28209.3 -25782.1 -17527.3
 S, KJ/(KG)(K)    10.7689  10.7689  10.7689

 M, (1/n)          22.903   22.939   22.959
 (dLV/dLP)t      -1.00123 -1.00045 -1.00000
 (dLV/dLT)p        1.0277   1.0109   1.0001
 Cp, KJ/(KG)(K)    2.0427   1.8906   1.7285
 GAMMAs            1.2292   1.2429   1.2651
 SON VEL,M/SEC     1081.2   1027.9    808.6
 MACH NUMBER        0.000    1.000    2.570

 PERFORMANCE PARAMETERS

 Ae/At                     1.00000   3.4131
 CSTAR, M/SEC               1487.4   1487.4
 CF                         0.6911   1.3973
 Ivac, M/SEC                1854.8   2326.9
 Isp, M/SEC                 1027.9   2078.2


 MASS FRACTIONS

 *CO              0.25847  0.25447  0.22147
 *CO2             0.08211  0.08839  0.14025
 *H               0.00015  0.00006  0.00000
 *H2              0.01278  0.01311  0.01553
 H2O              0.15045  0.14865  0.12771
 NH3              0.00001  0.00000  0.00000
 *NO              0.00017  0.00004  0.00000
 *N2              0.49496  0.49502  0.49504
 *O               0.00001  0.00000  0.00000
 *OH              0.00088  0.00025  0.00000
 *O2              0.00001  0.00000  0.00000

  * THERMODYNAMIC PROPERTIES FITTED TO 20000.K

 NOTE. WEIGHT FRACTION OF FUEL IN TOTAL FUELS AND OF OXIDANT IN TOTAL OXIDANTS










              THEORETICAL ROCKET PERFORMANCE ASSUMING EQUILIBRIUM

           COMPOSITION DURING EXPANSION FROM INFINITE AREA COMBUSTOR

 Pin =   300.0 PSIA
 CASE = _______________

             REACTANT                    WT FRACTION      ENERGY      TEMP
                                          (SEE NOTE)     KJ/KG-MOL      K  
 FUEL        C3H8O,2propanol              1.0000000         0.000      0.000
 OXIDANT     N2O                          1.0000000         0.000      0.000

 O/F=    3.75000  %FUEL= 21.052632  R,EQ.RATIO= 1.633921  PHI,EQ.RATIO= 1.757728

                 CHAMBER   THROAT     EXIT
 Pinf/P            1.0000   1.7937   20.414
 P, BAR            20.684   11.532   1.0132
 T, K             2699.24  2427.60  1490.32
 RHO, KG/CU M    2.1632 0 1.3438 0 1.9258-1
 H, KJ/KG        -0.00000  -529.76 -2185.67
 U, KJ/KG         -956.17 -1387.91 -2711.81
 G, KJ/KG        -28737.8 -26375.5 -18052.6
 S, KJ/(KG)(K)    10.6466  10.6466  10.6466

 M, (1/n)          23.472   23.521   23.552
 (dLV/dLP)t      -1.00174 -1.00066 -1.00000
 (dLV/dLT)p        1.0389   1.0160   1.0001
 Cp, KJ/(KG)(K)    2.1061   1.9132   1.7062
 GAMMAs            1.2192   1.2347   1.2609
 SON VEL,M/SEC     1079.7   1029.3    814.5
 MACH NUMBER        0.000    1.000    2.567

 PERFORMANCE PARAMETERS

 Ae/At                      1.0000   3.4354
 CSTAR, M/SEC               1495.4   1495.4
 CF                         0.6884   1.3982
 Ivac, M/SEC                1863.0   2342.4
 Isp, M/SEC                 1029.3   2090.8


 MASS FRACTIONS

 *CO              0.23524  0.23138  0.20098
 *CO2             0.09291  0.09897  0.14675
 *H               0.00019  0.00008  0.00000
 *H2              0.01040  0.01070  0.01293
 H2O              0.15703  0.15585  0.13685
 *NO              0.00035  0.00008  0.00000
 *N2              0.50232  0.50245  0.50249
 *O               0.00003  0.00000  0.00000
 *OH              0.00149  0.00047  0.00000
 *O2              0.00004  0.00001  0.00000

  * THERMODYNAMIC PROPERTIES FITTED TO 20000.K

 NOTE. WEIGHT FRACTION OF FUEL IN TOTAL FUELS AND OF OXIDANT IN TOTAL OXIDANTS










              THEORETICAL ROCKET PERFORMANCE ASSUMING EQUILIBRIUM

           COMPOSITION DURING EXPANSION FROM INFINITE AREA COMBUSTOR

 Pin =   300.0 PSIA
 CASE = _______________

             REACTANT                    WT FRACTION      ENERGY      TEMP
                                          (SEE NOTE)     KJ/KG-MOL      K  
 FUEL        C3H8O,2propanol              1.0000000         0.000      0.000
 OXIDANT     N2O                          1.0000000         0.000      0.000

 O/F=    4.00000  %FUEL= 20.000000  R,EQ.RATIO= 1.547606  PHI,EQ.RATIO= 1.647870

                 CHAMBER   THROAT     EXIT
 Pinf/P            1.0000   1.7885   20.414
 P, BAR            20.684   11.565   1.0132
 T, K             2769.12  2502.77  1550.06
 RHO, KG/CU M    2.1562 0 1.3375 0 1.8957-1
 H, KJ/KG        -0.00000  -530.03 -2207.85
 U, KJ/KG         -959.30 -1394.67 -2742.35
 G, KJ/KG        -29165.4 -26890.1 -18533.7
 S, KJ/(KG)(K)    10.5324  10.5324  10.5324

 M, (1/n)          24.001   24.067   24.112
 (dLV/dLP)t      -1.00240 -1.00096 -1.00000
 (dLV/dLT)p        1.0536   1.0230   1.0001
 Cp, KJ/(KG)(K)    2.1956   1.9511   1.6865
 GAMMAs            1.2088   1.2260   1.2571
 SON VEL,M/SEC     1076.9   1029.6    819.7
 MACH NUMBER        0.000    1.000    2.564

 PERFORMANCE PARAMETERS

 Ae/At                      1.0000   3.4571
 CSTAR, M/SEC               1502.0   1502.0
 CF                         0.6855   1.3991
 Ivac, M/SEC                1869.4   2355.7
 Isp, M/SEC                 1029.6   2101.4


 MASS FRACTIONS

 *CO              0.21304  0.20923  0.18148
 *CO2             0.10467  0.11066  0.15426
 *H               0.00021  0.00010  0.00000
 *H2              0.00840  0.00864  0.01068
 H2O              0.16165  0.16125  0.14440
 *NO              0.00065  0.00017  0.00000
 *N2              0.50888  0.50910  0.50919
 *O               0.00006  0.00001  0.00000
 *OH              0.00232  0.00081  0.00000
 *O2              0.00011  0.00002  0.00000

  * THERMODYNAMIC PROPERTIES FITTED TO 20000.K

 NOTE. WEIGHT FRACTION OF FUEL IN TOTAL FUELS AND OF OXIDANT IN TOTAL OXIDANTS










              THEORETICAL ROCKET PERFORMANCE ASSUMING EQUILIBRIUM

           COMPOSITION DURING EXPANSION FROM INFINITE AREA COMBUSTOR

 Pin =   300.0 PSIA
 CASE = _______________

             REACTANT                    WT FRACTION      ENERGY      TEMP
                                          (SEE NOTE)     KJ/KG-MOL      K  
 FUEL        C3H8O,2propanol              1.0000000         0.000      0.000
 OXIDANT     N2O                          1.0000000         0.000      0.000

 O/F=    4.25000  %FUEL= 19.047619  R,EQ.RATIO= 1.469952  PHI,EQ.RATIO= 1.550937

                 CHAMBER   THROAT     EXIT
 Pinf/P            1.0000   1.7829   20.414
 P, BAR            20.684   11.601   1.0132
 T, K             2829.05  2570.75  1606.72
 RHO, KG/CU M    2.1536 0 1.3340 0 1.8690-1
 H, KJ/KG         0.00000  -529.04 -2226.59
 U, KJ/KG         -960.45 -1398.70 -2768.71
 G, KJ/KG        -29494.0 -27330.2 -18977.3
 S, KJ/(KG)(K)    10.4254  10.4254  10.4254

 M, (1/n)          24.491   24.578   24.642
 (dLV/dLP)t      -1.00326 -1.00135 -1.00001
 (dLV/dLT)p        1.0728   1.0325   1.0002
 Cp, KJ/(KG)(K)    2.3189   2.0101   1.6692
 GAMMAs            1.1980   1.2167   1.2534
 SON VEL,M/SEC     1072.6   1028.6    824.3
 MACH NUMBER        0.000    1.000    2.560

 PERFORMANCE PARAMETERS

 Ae/At                     1.00000   3.4790
 CSTAR, M/SEC               1507.4   1507.4
 CF                         0.6824   1.3999
 Ivac, M/SEC                1874.1   2367.2
 Isp, M/SEC                 1028.6   2110.3


 MASS FRACTIONS

 *CO              0.19172  0.18778  0.16270
 *CO2             0.11725  0.12343  0.16283
 *H               0.00023  0.00012  0.00000
 *H2              0.00672  0.00691  0.00872
 H2O              0.16442  0.16493  0.15049
 *NO              0.00113  0.00034  0.00000
 *N2              0.51472  0.51509  0.51525
 *O               0.00013  0.00003  0.00000
 *OH              0.00340  0.00132  0.00000
 *O2              0.00028  0.00006  0.00000

  * THERMODYNAMIC PROPERTIES FITTED TO 20000.K

 NOTE. WEIGHT FRACTION OF FUEL IN TOTAL FUELS AND OF OXIDANT IN TOTAL OXIDANTS










              THEORETICAL ROCKET PERFORMANCE ASSUMING EQUILIBRIUM

           COMPOSITION DURING EXPANSION FROM INFINITE AREA COMBUSTOR

 Pin =   300.0 PSIA
 CASE = _______________

             REACTANT                    WT FRACTION      ENERGY      TEMP
                                          (SEE NOTE)     KJ/KG-MOL      K  
 FUEL        C3H8O,2propanol              1.0000000         0.000      0.000
 OXIDANT     N2O                          1.0000000         0.000      0.000

 O/F=    4.50000  %FUEL= 18.181818  R,EQ.RATIO= 1.399718  PHI,EQ.RATIO= 1.464774

                 CHAMBER   THROAT     EXIT
 Pinf/P            1.0000   1.7767   20.414
 P, BAR            20.684   11.642   1.0132
 T, K             2878.72  2631.35  1660.73
 RHO, KG/CU M    2.1555 0 1.3332 0 1.8452-1
 H, KJ/KG         0.00000  -526.69 -2242.27
 U, KJ/KG         -959.62 -1399.91 -2791.40
 G, KJ/KG        -29722.9 -27695.4 -19389.3
 S, KJ/(KG)(K)    10.3250  10.3250  10.3250

 M, (1/n)          24.942   25.055   25.145
 (dLV/dLP)t      -1.00437 -1.00191 -1.00001
 (dLV/dLT)p        1.0978   1.0459   1.0003
 Cp, KJ/(KG)(K)    2.4827   2.0992   1.6540
 GAMMAs            1.1869   1.2063   1.2500
 SON VEL,M/SEC     1067.2   1026.3    828.5
 MACH NUMBER        0.000    1.000    2.556

 PERFORMANCE PARAMETERS

 Ae/At                     1.00000   3.5018
 CSTAR, M/SEC               1511.7   1511.7
 CF                         0.6789   1.4009
 Ivac, M/SEC                1877.2   2377.0
 Isp, M/SEC                 1026.3   2117.7


 MASS FRACTIONS

 *CO              0.17128  0.16694  0.14444
 *CO2             0.13033  0.13716  0.17250
 *H               0.00025  0.00013  0.00000
 *H2              0.00535  0.00546  0.00702
 H2O              0.16549  0.16698  0.15527
 *NO              0.00183  0.00063  0.00000
 *N2              0.51990  0.52046  0.52076
 *O               0.00023  0.00005  0.00000
 *OH              0.00469  0.00203  0.00000
 *O2              0.00063  0.00015  0.00000

  * THERMODYNAMIC PROPERTIES FITTED TO 20000.K

 NOTE. WEIGHT FRACTION OF FUEL IN TOTAL FUELS AND OF OXIDANT IN TOTAL OXIDANTS










              THEORETICAL ROCKET PERFORMANCE ASSUMING EQUILIBRIUM

           COMPOSITION DURING EXPANSION FROM INFINITE AREA COMBUSTOR

 Pin =   300.0 PSIA
 CASE = _______________

             REACTANT                    WT FRACTION      ENERGY      TEMP
                                          (SEE NOTE)     KJ/KG-MOL      K  
 FUEL        C3H8O,2propanol              1.0000000         0.000      0.000
 OXIDANT     N2O                          1.0000000         0.000      0.000

 O/F=    4.75000  %FUEL= 17.391304  R,EQ.RATIO= 1.335890  PHI,EQ.RATIO= 1.387680

                 CHAMBER   THROAT     EXIT
 Pinf/P            1.0000   1.7698   20.414
 P, BAR            20.684   11.688   1.0132
 T, K             2917.81  2683.88  1712.53
 RHO, KG/CU M    2.1618 0 1.3354 0 1.8233-1
 H, KJ/KG        -0.00000  -522.90 -2255.07
 U, KJ/KG         -956.81 -1398.13 -2810.78
 G, KJ/KG        -29851.0 -27980.7 -19775.4
 S, KJ/(KG)(K)    10.2306  10.2306  10.2306

 M, (1/n)          25.355   25.496   25.623
 (dLV/dLP)t      -1.00577 -1.00268 -1.00001
 (dLV/dLT)p        1.1291   1.0647   1.0004
 Cp, KJ/(KG)(K)    2.6885   2.2300   1.6407
 GAMMAs            1.1761   1.1949   1.2468
 SON VEL,M/SEC     1060.8   1022.6    832.4
 MACH NUMBER        0.000    1.000    2.551

 PERFORMANCE PARAMETERS

 Ae/At                     1.00000   3.5267
 CSTAR, M/SEC               1514.7   1514.7
 CF                         0.6752   1.4021
 Ivac, M/SEC                1878.5   2385.4
 Isp, M/SEC                 1022.6   2123.7


 MASS FRACTIONS

 *CO              0.15188  0.14677  0.12654
 *CO2             0.14345  0.15148  0.18327
 *H               0.00025  0.00014  0.00000
 *H2              0.00425  0.00427  0.00556
 H2O              0.16510  0.16753  0.15883
 *NO              0.00278  0.00109  0.00000
 *N2              0.52449  0.52528  0.52579
 *O               0.00038  0.00011  0.00000
 *OH              0.00611  0.00294  0.00001
 *O2              0.00131  0.00038  0.00000

  * THERMODYNAMIC PROPERTIES FITTED TO 20000.K

 NOTE. WEIGHT FRACTION OF FUEL IN TOTAL FUELS AND OF OXIDANT IN TOTAL OXIDANTS










              THEORETICAL ROCKET PERFORMANCE ASSUMING EQUILIBRIUM

           COMPOSITION DURING EXPANSION FROM INFINITE AREA COMBUSTOR

 Pin =   300.0 PSIA
 CASE = _______________

             REACTANT                    WT FRACTION      ENERGY      TEMP
                                          (SEE NOTE)     KJ/KG-MOL      K  
 FUEL        C3H8O,2propanol              1.0000000         0.000      0.000
 OXIDANT     N2O                          1.0000000         0.000      0.000

 O/F=    5.00000  %FUEL= 16.666667  R,EQ.RATIO= 1.277630  PHI,EQ.RATIO= 1.318296

                 CHAMBER   THROAT     EXIT
 Pinf/P            1.0000   1.7622   20.414
 P, BAR            20.684   11.738   1.0132
 T, K             2946.28  2727.26  1762.57
 RHO, KG/CU M    2.1725 0 1.3407 0 1.8029-1
 H, KJ/KG         0.00000  -517.72 -2265.01
 U, KJ/KG         -952.09 -1393.20 -2827.01
 G, KJ/KG        -29880.4 -28176.8 -20140.5
 S, KJ/(KG)(K)    10.1417  10.1417  10.1417

 M, (1/n)          25.730   25.901   26.076
 (dLV/dLP)t      -1.00741 -1.00376 -1.00002
 (dLV/dLT)p        1.1656   1.0908   1.0007
 Cp, KJ/(KG)(K)    2.9262   2.4138   1.6295
 GAMMAs            1.1664   1.1827   1.2436
 SON VEL,M/SEC     1053.8   1017.6    836.0
 MACH NUMBER        0.000    1.000    2.546

 PERFORMANCE PARAMETERS

 Ae/At                      1.0000   3.5552
 CSTAR, M/SEC               1516.2   1516.2
 CF                         0.6711   1.4038
 Ivac, M/SEC                1877.9   2392.4
 Isp, M/SEC                 1017.6   2128.4


 MASS FRACTIONS

 *CO              0.13371  0.12749  0.10887
 *CO2             0.15607  0.16586  0.19511
 *H               0.00024  0.00015  0.00000
 *H2              0.00338  0.00332  0.00431
 H2O              0.16352  0.16674  0.16129
 *NO              0.00395  0.00177  0.00000
 *N2              0.52855  0.52958  0.53040
 *O               0.00057  0.00020  0.00000
 *OH              0.00755  0.00403  0.00001
 *O2              0.00244  0.00088  0.00000

  * THERMODYNAMIC PROPERTIES FITTED TO 20000.K

 NOTE. WEIGHT FRACTION OF FUEL IN TOTAL FUELS AND OF OXIDANT IN TOTAL OXIDANTS










              THEORETICAL ROCKET PERFORMANCE ASSUMING EQUILIBRIUM

           COMPOSITION DURING EXPANSION FROM INFINITE AREA COMBUSTOR

 Pin =   300.0 PSIA
 CASE = _______________

             REACTANT                    WT FRACTION      ENERGY      TEMP
                                          (SEE NOTE)     KJ/KG-MOL      K  
 FUEL        C3H8O,2propanol              1.0000000         0.000      0.000
 OXIDANT     N2O                          1.0000000         0.000      0.000

 O/F=    5.25000  %FUEL= 16.000000  R,EQ.RATIO= 1.224238  PHI,EQ.RATIO= 1.255520

                 CHAMBER   THROAT     EXIT
 Pinf/P            1.0000   1.7547   20.414
 P, BAR            20.684   11.788   1.0132
 T, K             2964.68  2760.27  1811.27
 RHO, KG/CU M    2.1873 0 1.3492 0 1.7835-1
 H, KJ/KG         0.00000  -511.47 -2271.97
 U, KJ/KG         -945.66 -1385.19 -2840.10
 G, KJ/KG        -29818.2 -28273.9 -20489.4
 S, KJ/(KG)(K)    10.0578  10.0578  10.0578

 M, (1/n)          26.066   26.267   26.508
 (dLV/dLP)t      -1.00914 -1.00518 -1.00003
 (dLV/dLT)p        1.2039   1.1247   1.0010
 Cp, KJ/(KG)(K)    3.1717   2.6507   1.6207
 GAMMAs            1.1582   1.1708   1.2405
 SON VEL,M/SEC     1046.6   1011.4    839.5
 MACH NUMBER        0.000    1.000    2.539

 PERFORMANCE PARAMETERS

 Ae/At                      1.0000   3.5893
 CSTAR, M/SEC               1515.8   1515.8
 CF                         0.6672   1.4063
 Ivac, M/SEC                1875.3   2398.2
 Isp, M/SEC                 1011.4   2131.7


 MASS FRACTIONS

 *CO              0.11699  0.10944  0.09136
 *CO2             0.16770  0.17957  0.20797
 *H               0.00022  0.00015  0.00000
 HO2              0.00001  0.00000  0.00000
 *H2              0.00270  0.00257  0.00325
 H2O              0.16105  0.16482  0.16274
 *NO              0.00531  0.00269  0.00000
 *N2              0.53216  0.53339  0.53464
 *O               0.00079  0.00032  0.00000
 *OH              0.00889  0.00521  0.00002
 *O2              0.00417  0.00184  0.00000

  * THERMODYNAMIC PROPERTIES FITTED TO 20000.K

 NOTE. WEIGHT FRACTION OF FUEL IN TOTAL FUELS AND OF OXIDANT IN TOTAL OXIDANTS










              THEORETICAL ROCKET PERFORMANCE ASSUMING EQUILIBRIUM

           COMPOSITION DURING EXPANSION FROM INFINITE AREA COMBUSTOR

 Pin =   300.0 PSIA
 CASE = _______________

             REACTANT                    WT FRACTION      ENERGY      TEMP
                                          (SEE NOTE)     KJ/KG-MOL      K  
 FUEL        C3H8O,2propanol              1.0000000         0.000      0.000
 OXIDANT     N2O                          1.0000000         0.000      0.000

 O/F=    5.50000  %FUEL= 15.384615  R,EQ.RATIO= 1.175131  PHI,EQ.RATIO= 1.198451

                 CHAMBER   THROAT     EXIT
 Pinf/P            1.0000   1.7481   20.414
 P, BAR            20.684   11.833   1.0132
 T, K             2974.02  2782.22  1859.08
 RHO, KG/CU M    2.2056 0 1.3603 0 1.7645-1
 H, KJ/KG         0.00000  -504.69 -2275.67
 U, KJ/KG         -937.79 -1374.54 -2849.90
 G, KJ/KG        -29676.7 -28267.5 -20826.8
 S, KJ/(KG)(K)     9.9786   9.9786   9.9786

 M, (1/n)          26.368   26.594   26.919
 (dLV/dLP)t      -1.01073 -1.00681 -1.00004
 (dLV/dLT)p        1.2392   1.1634   1.0015
 Cp, KJ/(KG)(K)    3.3928   2.9172   1.6150
 GAMMAs            1.1521   1.1604   1.2373
 SON VEL,M/SEC     1039.4   1004.7    842.9
 MACH NUMBER        0.000    1.000    2.531

 PERFORMANCE PARAMETERS

 Ae/At                     1.00000   3.6305
 CSTAR, M/SEC               1513.5   1513.5
 CF                         0.6638   1.4096
 Ivac, M/SEC                1870.5   2402.5
 Isp, M/SEC                 1004.7   2133.4


 MASS FRACTIONS

 *CO              0.10184  0.09296  0.07399
 *CO2             0.17799  0.19194  0.22175
 *H               0.00021  0.00014  0.00000
 HO2              0.00001  0.00000  0.00000
 *H2              0.00216  0.00199  0.00237
 H2O              0.15798  0.16206  0.16329
 *NO              0.00676  0.00381  0.00001
 *N2              0.53540  0.53678  0.53856
 *O               0.00102  0.00047  0.00000
 *OH              0.01004  0.00636  0.00004
 *O2              0.00658  0.00347  0.00000

  * THERMODYNAMIC PROPERTIES FITTED TO 20000.K

 NOTE. WEIGHT FRACTION OF FUEL IN TOTAL FUELS AND OF OXIDANT IN TOTAL OXIDANTS










              THEORETICAL ROCKET PERFORMANCE ASSUMING EQUILIBRIUM

           COMPOSITION DURING EXPANSION FROM INFINITE AREA COMBUSTOR

 Pin =   300.0 PSIA
 CASE = _______________

             REACTANT                    WT FRACTION      ENERGY      TEMP
                                          (SEE NOTE)     KJ/KG-MOL      K  
 FUEL        C3H8O,2propanol              1.0000000         0.000      0.000
 OXIDANT     N2O                          1.0000000         0.000      0.000

 O/F=    5.75000  %FUEL= 14.814815  R,EQ.RATIO= 1.129810  PHI,EQ.RATIO= 1.146345

                 CHAMBER   THROAT     EXIT
 Pinf/P            1.0000   1.7430   20.414
 P, BAR            20.684   11.867   1.0132
 T, K             2975.64  2793.39  1906.42
 RHO, KG/CU M    2.2270 0 1.3736 0 1.7458-1
 H, KJ/KG         0.00000  -497.89 -2275.67
 U, KJ/KG         -928.81 -1361.87 -2856.07
 G, KJ/KG        -29470.0 -28163.0 -21156.4
 S, KJ/(KG)(K)     9.9038   9.9038   9.9038

 M, (1/n)          26.637   26.882   27.310
 (dLV/dLP)t      -1.01198 -1.00838 -1.00007
 (dLV/dLT)p        1.2670   1.2003   1.0023
 Cp, KJ/(KG)(K)    3.5611   3.1659   1.6147
 GAMMAs            1.1478   1.1526   1.2336
 SON VEL,M/SEC     1032.5    997.9    846.2
 MACH NUMBER        0.000    1.000    2.521

 PERFORMANCE PARAMETERS

 Ae/At                     1.00000   3.6802
 CSTAR, M/SEC               1509.1   1509.1
 CF                         0.6613   1.4137
 Ivac, M/SEC                1863.7   2405.4
 Isp, M/SEC                  997.9   2133.4


 MASS FRACTIONS

 *CO              0.08827  0.07828  0.05676
 *CO2             0.18678  0.20249  0.23630
 *H               0.00019  0.00013  0.00000
 HO2              0.00001  0.00001  0.00000
 *H2              0.00175  0.00155  0.00163
 H2O              0.15457  0.15874  0.16302
 *NO              0.00823  0.00507  0.00002
 NO2              0.00001  0.00000  0.00000
 *N2              0.53834  0.53982  0.54218
 *O               0.00123  0.00064  0.00000
 *OH              0.01094  0.00737  0.00008
 *O2              0.00966  0.00590  0.00000

  * THERMODYNAMIC PROPERTIES FITTED TO 20000.K

 NOTE. WEIGHT FRACTION OF FUEL IN TOTAL FUELS AND OF OXIDANT IN TOTAL OXIDANTS










              THEORETICAL ROCKET PERFORMANCE ASSUMING EQUILIBRIUM

           COMPOSITION DURING EXPANSION FROM INFINITE AREA COMBUSTOR

 Pin =   300.0 PSIA
 CASE = _______________

             REACTANT                    WT FRACTION      ENERGY      TEMP
                                          (SEE NOTE)     KJ/KG-MOL      K  
 FUEL        C3H8O,2propanol              1.0000000         0.000      0.000
 OXIDANT     N2O                          1.0000000         0.000      0.000

 O/F=    6.00000  %FUEL= 14.285714  R,EQ.RATIO= 1.087856  PHI,EQ.RATIO= 1.098580

                 CHAMBER   THROAT     EXIT
 Pinf/P            1.0000   1.7397   20.414
 P, BAR            20.684   11.890   1.0132
 T, K             2970.90  2794.98  1953.60
 RHO, KG/CU M    2.2507 0 1.3883 0 1.7268-1
 H, KJ/KG         0.00000  -491.38 -2271.21
 U, KJ/KG         -919.02 -1347.80 -2857.97
 G, KJ/KG        -29212.5 -27974.1 -21480.7
 S, KJ/(KG)(K)     9.8329   9.8329   9.8329

 M, (1/n)          26.878   27.135   27.683
 (dLV/dLP)t      -1.01275 -1.00956 -1.00012
 (dLV/dLT)p        1.2847   1.2282   1.0042
 Cp, KJ/(KG)(K)    3.6611   3.3464   1.6261
 GAMMAs            1.1451   1.1475   1.2287
 SON VEL,M/SEC     1025.8    991.3    849.1
 MACH NUMBER        0.000    1.000    2.510

 PERFORMANCE PARAMETERS

 Ae/At                      1.0000   3.7395
 CSTAR, M/SEC               1502.9   1502.9
 CF                         0.6596   1.4181
 Ivac, M/SEC                1855.2   2406.6
 Isp, M/SEC                  991.3   2131.3


 MASS FRACTIONS

 *CO              0.07624  0.06546  0.03972
 *CO2             0.19406  0.21101  0.25145
 *H               0.00016  0.00011  0.00001
 HO2              0.00002  0.00001  0.00000
 *H2              0.00142  0.00122  0.00102
 H2O              0.15100  0.15512  0.16205
 *NO              0.00966  0.00635  0.00005
 NO2              0.00001  0.00000  0.00000
 *N2              0.54104  0.54259  0.54554
 *O               0.00142  0.00080  0.00000
 *OH              0.01158  0.00815  0.00016
 *O2              0.01337  0.00918  0.00001

  * THERMODYNAMIC PROPERTIES FITTED TO 20000.K

 NOTE. WEIGHT FRACTION OF FUEL IN TOTAL FUELS AND OF OXIDANT IN TOTAL OXIDANTS










              THEORETICAL ROCKET PERFORMANCE ASSUMING EQUILIBRIUM

           COMPOSITION DURING EXPANSION FROM INFINITE AREA COMBUSTOR

 Pin =   300.0 PSIA
 CASE = _______________

             REACTANT                    WT FRACTION      ENERGY      TEMP
                                          (SEE NOTE)     KJ/KG-MOL      K  
 FUEL        C3H8O,2propanol              1.0000000         0.000      0.000
 OXIDANT     N2O                          1.0000000         0.000      0.000

 O/F=    6.25000  %FUEL= 13.793103  R,EQ.RATIO= 1.048906  PHI,EQ.RATIO= 1.054637

                 CHAMBER   THROAT     EXIT
 Pinf/P            1.0000   1.7380   20.414
 P, BAR            20.684   11.901   1.0132
 T, K             2961.02  2788.60  2000.04
 RHO, KG/CU M    2.2763 0 1.4041 0 1.7081-1
 H, KJ/KG         0.00000  -485.21 -2260.81
 U, KJ/KG         -908.69 -1332.77 -2854.00
 G, KJ/KG        -28916.4 -27717.9 -21792.6
 S, KJ/(KG)(K)     9.7657   9.7657   9.7657

 M, (1/n)          27.093   27.356   28.034
 (dLV/dLP)t      -1.01303 -1.01015 -1.00030
 (dLV/dLT)p        1.2917   1.2424   1.0102
 Cp, KJ/(KG)(K)    3.6917   3.4311   1.6803
 GAMMAs            1.1437   1.1449   1.2192
 SON VEL,M/SEC     1019.5    985.1    850.4
 MACH NUMBER        0.000    1.000    2.500

 PERFORMANCE PARAMETERS

 Ae/At                      1.0000   3.8082
 CSTAR, M/SEC               1495.4   1495.4
 CF                         0.6588   1.4220
 Ivac, M/SEC                1845.5   2405.4
 Isp, M/SEC                  985.1   2126.4


 MASS FRACTIONS

 *CO              0.06563  0.05441  0.02309
 *CO2             0.19991  0.21755  0.26675
 *H               0.00014  0.00010  0.00001
 HO2              0.00002  0.00001  0.00000
 *H2              0.00116  0.00096  0.00053
 H2O              0.14738  0.15137  0.16042
 *NO              0.01098  0.00759  0.00014
 NO2              0.00001  0.00001  0.00000
 *N2              0.54356  0.54515  0.54863
 *O               0.00157  0.00094  0.00000
 *OH              0.01198  0.00867  0.00032
 *O2              0.01764  0.01326  0.00011

  * THERMODYNAMIC PROPERTIES FITTED TO 20000.K

 NOTE. WEIGHT FRACTION OF FUEL IN TOTAL FUELS AND OF OXIDANT IN TOTAL OXIDANTS










              THEORETICAL ROCKET PERFORMANCE ASSUMING EQUILIBRIUM

           COMPOSITION DURING EXPANSION FROM INFINITE AREA COMBUSTOR

 Pin =   300.0 PSIA
 CASE = _______________

             REACTANT                    WT FRACTION      ENERGY      TEMP
                                          (SEE NOTE)     KJ/KG-MOL      K  
 FUEL        C3H8O,2propanol              1.0000000         0.000      0.000
 OXIDANT     N2O                          1.0000000         0.000      0.000

 O/F=    6.50000  %FUEL= 13.333333  R,EQ.RATIO= 1.012649  PHI,EQ.RATIO= 1.014074

                 CHAMBER   THROAT     EXIT
 Pinf/P            1.0000   1.7376   20.414
 P, BAR            20.684   11.904   1.0132
 T, K             2946.99  2775.82  2032.48
 RHO, KG/CU M    2.3034 0 1.4209 0 1.6986-1
 H, KJ/KG         0.00000  -479.34 -2241.29
 U, KJ/KG         -898.00 -1317.11 -2837.79
 G, KJ/KG        -28591.6 -27410.2 -21960.3
 S, KJ/(KG)(K)     9.7020   9.7020   9.7020

 M, (1/n)          27.286   27.549   28.330
 (dLV/dLP)t      -1.01287 -1.01014 -1.00116
 (dLV/dLT)p        1.2892   1.2430   1.0388
 Cp, KJ/(KG)(K)    3.6619   3.4219   1.9524
 GAMMAs            1.1434   1.1443   1.1920
 SON VEL,M/SEC     1013.3    979.1    843.2
 MACH NUMBER        0.000    1.000    2.511

 PERFORMANCE PARAMETERS

 Ae/At                      1.0000   3.8685
 CSTAR, M/SEC               1486.8   1486.8
 CF                         0.6586   1.4240
 Ivac, M/SEC                1834.8   2399.0
 Isp, M/SEC                  979.1   2117.2


 MASS FRACTIONS

 *CO              0.05633  0.04497  0.00871
 *CO2             0.20443  0.22227  0.27925
 *H               0.00012  0.00008  0.00000
 HO2              0.00002  0.00001  0.00000
 *H2              0.00096  0.00076  0.00018
 H2O              0.14379  0.14762  0.15783
 *NO              0.01218  0.00871  0.00057
 NO2              0.00002  0.00001  0.00000
 *N2              0.54592  0.54755  0.55135
 *O               0.00168  0.00103  0.00002
 *OH              0.01215  0.00894  0.00070
 *O2              0.02239  0.01804  0.00138

  * THERMODYNAMIC PROPERTIES FITTED TO 20000.K

 NOTE. WEIGHT FRACTION OF FUEL IN TOTAL FUELS AND OF OXIDANT IN TOTAL OXIDANTS










              THEORETICAL ROCKET PERFORMANCE ASSUMING EQUILIBRIUM

           COMPOSITION DURING EXPANSION FROM INFINITE AREA COMBUSTOR

 Pin =   300.0 PSIA
 CASE = _______________

             REACTANT                    WT FRACTION      ENERGY      TEMP
                                          (SEE NOTE)     KJ/KG-MOL      K  
 FUEL        C3H8O,2propanol              1.0000000         0.000      0.000
 OXIDANT     N2O                          1.0000000         0.000      0.000

 O/F=    6.75000  %FUEL= 12.903226  R,EQ.RATIO= 0.978814  PHI,EQ.RATIO= 0.976516

                 CHAMBER   THROAT     EXIT
 Pinf/P            1.0000   1.7382   20.414
 P, BAR            20.684   11.900   1.0132
 T, K             2929.63  2757.96  2006.60
 RHO, KG/CU M    2.3317 0 1.4384 0 1.7286-1
 H, KJ/KG         0.00000  -473.74 -2210.49
 U, KJ/KG         -887.09 -1301.05 -2796.65
 G, KJ/KG        -28245.6 -27064.2 -21556.9
 S, KJ/(KG)(K)     9.6414   9.6414   9.6414

 M, (1/n)          27.459   27.718   28.463
 (dLV/dLP)t      -1.01236 -1.00966 -1.00099
 (dLV/dLT)p        1.2792   1.2327   1.0331
 Cp, KJ/(KG)(K)    3.5852   3.3393   1.8890
 GAMMAs            1.1440   1.1453   1.1963
 SON VEL,M/SEC     1007.4    973.4    837.4
 MACH NUMBER        0.000    1.000    2.511

 PERFORMANCE PARAMETERS

 Ae/At                      1.0000   3.8521
 CSTAR, M/SEC               1477.4   1477.4
 CF                         0.6589   1.4232
 Ivac, M/SEC                1823.3   2381.4
 Isp, M/SEC                  973.4   2102.6


 MASS FRACTIONS

 *CO              0.04819  0.03698  0.00285
 *CO2             0.20777  0.22538  0.27900
 *H               0.00011  0.00007  0.00000
 HO2              0.00003  0.00002  0.00000
 *H2              0.00079  0.00060  0.00006
 H2O              0.14029  0.14394  0.15366
 *NO              0.01324  0.00968  0.00131
 NO2              0.00002  0.00001  0.00000
 *N2              0.54817  0.54983  0.55375
 *O               0.00174  0.00109  0.00003
 *OH              0.01214  0.00899  0.00096
 *O2              0.02751  0.02339  0.00837

  * THERMODYNAMIC PROPERTIES FITTED TO 20000.K

 NOTE. WEIGHT FRACTION OF FUEL IN TOTAL FUELS AND OF OXIDANT IN TOTAL OXIDANTS










              THEORETICAL ROCKET PERFORMANCE ASSUMING EQUILIBRIUM

           COMPOSITION DURING EXPANSION FROM INFINITE AREA COMBUSTOR

 Pin =   300.0 PSIA
 CASE = _______________

             REACTANT                    WT FRACTION      ENERGY      TEMP
                                          (SEE NOTE)     KJ/KG-MOL      K  
 FUEL        C3H8O,2propanol              1.0000000         0.000      0.000
 OXIDANT     N2O                          1.0000000         0.000      0.000

 O/F=    7.00000  %FUEL= 12.500000  R,EQ.RATIO= 0.947168  PHI,EQ.RATIO= 0.941640

                 CHAMBER   THROAT     EXIT
 Pinf/P            1.0000   1.7396   20.414
 P, BAR            20.684   11.890   1.0132
 T, K             2909.55  2736.07  1957.53
 RHO, KG/CU M    2.3610 0 1.4565 0 1.7754-1
 H, KJ/KG         0.00000  -468.34 -2174.14
 U, KJ/KG         -876.07 -1284.73 -2744.85
 G, KJ/KG        -27884.3 -26690.0 -20934.5
 S, KJ/(KG)(K)     9.5837   9.5837   9.5837

 M, (1/n)          27.614   27.865   28.519
 (dLV/dLP)t      -1.01160 -1.00886 -1.00053
 (dLV/dLT)p        1.2639   1.2151   1.0182
 Cp, KJ/(KG)(K)    3.4757   3.2090   1.7375
 GAMMAs            1.1452   1.1474   1.2098
 SON VEL,M/SEC     1001.6    967.8    830.9
 MACH NUMBER        0.000    1.000    2.510

 PERFORMANCE PARAMETERS

 Ae/At                      1.0000   3.8075
 CSTAR, M/SEC               1467.4   1467.4
 CF                         0.6596   1.4211
 Ivac, M/SEC                1811.4   2358.9
 Isp, M/SEC                  967.8   2085.3


 MASS FRACTIONS

 *CO              0.04109  0.03024  0.00125
 *CO2             0.21007  0.22711  0.27267
 *H               0.00009  0.00006  0.00000
 HO2              0.00003  0.00002  0.00000
 *H2              0.00065  0.00048  0.00003
 H2O              0.13690  0.14038  0.14916
 *NO              0.01414  0.01050  0.00168
 NO2              0.00002  0.00001  0.00000
 *N2              0.55031  0.55201  0.55614
 *O               0.00177  0.00111  0.00003
 *OH              0.01197  0.00887  0.00090
 *O2              0.03295  0.02920  0.01814

  * THERMODYNAMIC PROPERTIES FITTED TO 20000.K

 NOTE. WEIGHT FRACTION OF FUEL IN TOTAL FUELS AND OF OXIDANT IN TOTAL OXIDANTS










              THEORETICAL ROCKET PERFORMANCE ASSUMING EQUILIBRIUM

           COMPOSITION DURING EXPANSION FROM INFINITE AREA COMBUSTOR

 Pin =   300.0 PSIA
 CASE = _______________

             REACTANT                    WT FRACTION      ENERGY      TEMP
                                          (SEE NOTE)     KJ/KG-MOL      K  
 FUEL        C3H8O,2propanol              1.0000000         0.000      0.000
 OXIDANT     N2O                          1.0000000         0.000      0.000

 O/F=    7.25000  %FUEL= 12.121212  R,EQ.RATIO= 0.917504  PHI,EQ.RATIO= 0.909170

                 CHAMBER   THROAT     EXIT
 Pinf/P            1.0000   1.7415   20.414
 P, BAR            20.684   11.877   1.0132
 T, K             2887.25  2710.96  1907.08
 RHO, KG/CU M    2.3912 0 1.4751 0 1.8247-1
 H, KJ/KG         0.00000  -463.11 -2135.98
 U, KJ/KG         -865.00 -1268.27 -2691.26
 G, KJ/KG        -27511.9 -26295.2 -20308.0
 S, KJ/(KG)(K)     9.5288   9.5288   9.5288

 M, (1/n)          27.752   27.995   28.556
 (dLV/dLP)t      -1.01070 -1.00791 -1.00031
 (dLV/dLT)p        1.2452   1.1938   1.0109
 Cp, KJ/(KG)(K)    3.3456   3.0536   1.6555
 GAMMAs            1.1470   1.1503   1.2187
 SON VEL,M/SEC      996.1    962.4    822.6
 MACH NUMBER        0.000    1.000    2.513

 PERFORMANCE PARAMETERS

 Ae/At                     1.00000   3.7642
 CSTAR, M/SEC               1457.0   1457.0
 CF                         0.6606   1.4186
 Ivac, M/SEC                1799.0   2335.5
 Isp, M/SEC                  962.4   2066.9


 MASS FRACTIONS

 *CO              0.03492  0.02460  0.00062
 *CO2             0.21144  0.22766  0.26533
 *H               0.00008  0.00005  0.00000
 HO2              0.00003  0.00002  0.00000
 *H2              0.00054  0.00039  0.00001
 H2O              0.13363  0.13694  0.14481
 *NO              0.01490  0.01116  0.00181
 NO2              0.00003  0.00002  0.00000
 *N2              0.55236  0.55412  0.55849
 *O               0.00176  0.00110  0.00003
 *OH              0.01168  0.00860  0.00077
 *O2              0.03862  0.03536  0.02813

  * THERMODYNAMIC PROPERTIES FITTED TO 20000.K

 NOTE. WEIGHT FRACTION OF FUEL IN TOTAL FUELS AND OF OXIDANT IN TOTAL OXIDANTS










              THEORETICAL ROCKET PERFORMANCE ASSUMING EQUILIBRIUM

           COMPOSITION DURING EXPANSION FROM INFINITE AREA COMBUSTOR

 Pin =   300.0 PSIA
 CASE = _______________

             REACTANT                    WT FRACTION      ENERGY      TEMP
                                          (SEE NOTE)     KJ/KG-MOL      K  
 FUEL        C3H8O,2propanol              1.0000000         0.000      0.000
 OXIDANT     N2O                          1.0000000         0.000      0.000

 O/F=    7.50000  %FUEL= 11.764706  R,EQ.RATIO= 0.889641  PHI,EQ.RATIO= 0.878864

                 CHAMBER   THROAT     EXIT
 Pinf/P            1.0000   1.7438   20.414
 P, BAR            20.684   11.861   1.0132
 T, K             2863.11  2683.29  1858.44
 RHO, KG/CU M    2.4222 0 1.4943 0 1.8744-1
 H, KJ/KG         0.00000  -458.00 -2097.41
 U, KJ/KG         -853.94 -1251.75 -2637.98
 G, KJ/KG        -27131.7 -25885.7 -19708.6
 S, KJ/(KG)(K)     9.4763   9.4763   9.4763

 M, (1/n)          27.877   28.107   28.585
 (dLV/dLP)t      -1.00973 -1.00691 -1.00019
 (dLV/dLT)p        1.2248   1.1711   1.0070
 Cp, KJ/(KG)(K)    3.2049   2.8900   1.6041
 GAMMAs            1.1493   1.1540   1.2250
 SON VEL,M/SEC      990.7    957.1    813.8
 MACH NUMBER        0.000    1.000    2.517

 PERFORMANCE PARAMETERS

 Ae/At                      1.0000   3.7254
 CSTAR, M/SEC               1446.2   1446.2
 CF                         0.6618   1.4162
 Ivac, M/SEC                1786.4   2312.1
 Isp, M/SEC                  957.1   2048.1


 MASS FRACTIONS

 *CO              0.02957  0.01989  0.00033
 *CO2             0.21200  0.22721  0.25796
 *H               0.00006  0.00004  0.00000
 HO2              0.00003  0.00002  0.00000
 *H2              0.00045  0.00031  0.00001
 H2O              0.13048  0.13363  0.14067
 *NO              0.01551  0.01165  0.00181
 NO2              0.00003  0.00002  0.00000
 *N2              0.55435  0.55615  0.56076
 N2O              0.00001  0.00000  0.00000
 *O               0.00172  0.00106  0.00002
 *OH              0.01129  0.00823  0.00062
 *O2              0.04447  0.04177  0.03782

  * THERMODYNAMIC PROPERTIES FITTED TO 20000.K

 NOTE. WEIGHT FRACTION OF FUEL IN TOTAL FUELS AND OF OXIDANT IN TOTAL OXIDANTS










              THEORETICAL ROCKET PERFORMANCE ASSUMING EQUILIBRIUM

           COMPOSITION DURING EXPANSION FROM INFINITE AREA COMBUSTOR

 Pin =   300.0 PSIA
 CASE = _______________

             REACTANT                    WT FRACTION      ENERGY      TEMP
                                          (SEE NOTE)     KJ/KG-MOL      K  
 FUEL        C3H8O,2propanol              1.0000000         0.000      0.000
 OXIDANT     N2O                          1.0000000         0.000      0.000

 O/F=    7.75000  %FUEL= 11.428571  R,EQ.RATIO= 0.863421  PHI,EQ.RATIO= 0.850514

                 CHAMBER   THROAT     EXIT
 Pinf/P            1.0000   1.7465   20.414
 P, BAR            20.684   11.843   1.0132
 T, K             2837.44  2653.59  1812.21
 RHO, KG/CU M    2.4539 0 1.5140 0 1.9239-1
 H, KJ/KG         0.00000  -452.99 -2059.11
 U, KJ/KG         -842.91 -1235.23 -2585.76
 G, KJ/KG        -26746.3 -25466.2 -19141.4
 S, KJ/(KG)(K)     9.4262   9.4262   9.4262

 M, (1/n)          27.989   28.206   28.610
 (dLV/dLP)t      -1.00873 -1.00595 -1.00012
 (dLV/dLT)p        1.2037   1.1489   1.0047
 Cp, KJ/(KG)(K)    3.0609   2.7291   1.5677
 GAMMAs            1.1519   1.1582   1.2300
 SON VEL,M/SEC      985.4    951.8    804.9
 MACH NUMBER        0.000    1.000    2.521

 PERFORMANCE PARAMETERS

 Ae/At                      1.0000   3.6911
 CSTAR, M/SEC               1435.3   1435.3
 CF                         0.6632   1.4139
 Ivac, M/SEC                1773.6   2288.9
 Isp, M/SEC                  951.8   2029.3


 MASS FRACTIONS

 *CO              0.02496  0.01601  0.00018
 *CO2             0.21187  0.22594  0.25080
 *H               0.00005  0.00003  0.00000
 HO2              0.00003  0.00002  0.00000
 *H2              0.00037  0.00025  0.00000
 H2O              0.12747  0.13046  0.13674
 *NO              0.01599  0.01200  0.00174
 NO2              0.00003  0.00002  0.00000
 *N2              0.55626  0.55813  0.56293
 N2O              0.00001  0.00000  0.00000
 *O               0.00166  0.00101  0.00002
 *OH              0.01083  0.00778  0.00050
 *O2              0.05045  0.04836  0.04709

  * THERMODYNAMIC PROPERTIES FITTED TO 20000.K

 NOTE. WEIGHT FRACTION OF FUEL IN TOTAL FUELS AND OF OXIDANT IN TOTAL OXIDANTS










              THEORETICAL ROCKET PERFORMANCE ASSUMING EQUILIBRIUM

           COMPOSITION DURING EXPANSION FROM INFINITE AREA COMBUSTOR

 Pin =   300.0 PSIA
 CASE = _______________

             REACTANT                    WT FRACTION      ENERGY      TEMP
                                          (SEE NOTE)     KJ/KG-MOL      K  
 FUEL        C3H8O,2propanol              1.0000000         0.000      0.000
 OXIDANT     N2O                          1.0000000         0.000      0.000

 O/F=    8.00000  %FUEL= 11.111111  R,EQ.RATIO= 0.838702  PHI,EQ.RATIO= 0.823935

                 CHAMBER   THROAT     EXIT
 Pinf/P            1.0000   1.7495   20.414
 P, BAR            20.684   11.823   1.0132
 T, K             2810.52  2622.29  1768.40
 RHO, KG/CU M    2.4863 0 1.5342 0 1.9731-1
 H, KJ/KG         0.00000  -448.08 -2021.43
 U, KJ/KG         -831.94 -1218.74 -2534.95
 G, KJ/KG        -26357.7 -25040.5 -18605.9
 S, KJ/(KG)(K)     9.3782   9.3782   9.3782

 M, (1/n)          28.089   28.291   28.633
 (dLV/dLP)t      -1.00777 -1.00505 -1.00008
 (dLV/dLT)p        1.1830   1.1281   1.0033
 Cp, KJ/(KG)(K)    2.9189   2.5777   1.5396
 GAMMAs            1.1549   1.1628   1.2342
 SON VEL,M/SEC      980.2    946.7    796.1
 MACH NUMBER        0.000    1.000    2.526

 PERFORMANCE PARAMETERS

 Ae/At                      1.0000   3.6607
 CSTAR, M/SEC               1424.2   1424.2
 CF                         0.6647   1.4118
 Ivac, M/SEC                1760.7   2266.1
 Isp, M/SEC                  946.7   2010.7


 MASS FRACTIONS

 *CO              0.02099  0.01281  0.00010
 *CO2             0.21113  0.22398  0.24395
 *H               0.00004  0.00002  0.00000
 HO2              0.00004  0.00002  0.00000
 *H2              0.00031  0.00020  0.00000
 H2O              0.12458  0.12741  0.13300
 *NO              0.01634  0.01221  0.00163
 NO2              0.00004  0.00002  0.00000
 *N2              0.55812  0.56005  0.56500
 N2O              0.00001  0.00000  0.00000
 *O               0.00158  0.00093  0.00001
 *OH              0.01031  0.00728  0.00039
 *O2              0.05651  0.05505  0.05590

  * THERMODYNAMIC PROPERTIES FITTED TO 20000.K

 NOTE. WEIGHT FRACTION OF FUEL IN TOTAL FUELS AND OF OXIDANT IN TOTAL OXIDANTS



