
 *******************************************************************************

         NASA-GLENN CHEMICAL EQUILIBRIUM PROGRAM CEA2, FEBRUARY 5, 2004
                   BY  BONNIE MCBRIDE AND SANFORD GORDON
      REFS: NASA RP-1311, PART I, 1994 AND NASA RP-1311, PART II, 1996

 *******************************************************************************



  
 ### CEA analysis performed on Wed 21-May-2025 21:11:25
  
 # Problem Type: "Rocket" (Infinite Area Combustor)
  
 prob case = _______________4703 ro equilibrium
  
 # Pressure (25 values):
 p,psia= 14, 35, 56, 77, 98, 119, 140, 161, 182, 203, 224, 245, 266, 287, 308, 32
 9, 350, 371, 392, 413, 434, 455, 476, 497, 518
  
 # Oxidizer/Fuel Wt. ratio (29 values):
 o/f = 1, 1.25, 1.5, 1.75, 2, 2.25, 2.5, 2.75, 3, 3.25, 3.5, 3.75, 4, 4.25, 4.5, 
 4.75, 5, 5.25, 5.5, 5.75, 6, 6.25, 6.5, 6.75, 7, 7.2
  
 # You selected the following fuels and oxidizers:
 reac
 fuel C3H8O,2propanol   wt%=100.0000
 oxid N2O               wt%=100.0000
  
 # You selected these options for output:
 # short version of output
 output short
 # Proportions of any products will be expressed as Mass Fractions.
 output massf
 # Heat will be expressed as siunits
 output siunits
 # Transport properties calculated
 output transport
  
  
 # Input prepared by this script:/var/www/sites/cearun/cgi-bin/CEARUN/prepareInpu
 tFile.cgi
  
 ### IMPORTANT:  The following line is the end of your CEA input file!
 end






              THEORETICAL ROCKET PERFORMANCE ASSUMING EQUILIBRIUM

           COMPOSITION DURING EXPANSION FROM INFINITE AREA COMBUSTOR

 Pin =    14.0 PSIA
 CASE = _______________

             REACTANT                    WT FRACTION      ENERGY      TEMP
                                          (SEE NOTE)     KJ/KG-MOL      K  
 FUEL        C3H8O,2propanol              1.0000000         0.000      0.000
 OXIDANT     N2O                          1.0000000         0.000      0.000

 O/F=    1.00000  %FUEL= 50.000000  R,EQ.RATIO= 4.227617  PHI,EQ.RATIO= 6.591481

                 CHAMBER   THROAT
 Pinf/P            1.0000   1.8180
 P, BAR           0.96526  0.53095
 T, K             1351.17  1184.34
 RHO, KG/CU M    1.3393-1 8.4351-2
 H, KJ/KG        -0.00000  -402.67
 U, KJ/KG         -720.72 -1032.12
 G, KJ/KG        -19020.2 -17074.4
 S, KJ/(KG)(K)    14.0769  14.0769

 M, (1/n)          15.588   15.644
 MW, MOL WT        14.409   14.434
 (dLV/dLP)t      -1.00259 -1.00609
 (dLV/dLT)p        1.0260   1.0763
 Cp, KJ/(KG)(K)    2.4076   2.7428
 GAMMAs            1.2997   1.2794
 SON VEL,M/SEC      967.9    897.4
 MACH NUMBER        0.000    1.000

 TRANSPORT PROPERTIES (GASES ONLY)
   CONDUCTIVITY IN UNITS OF MILLIWATTS/(CM)(K)

 VISC,MILLIPOISE  0.70875  0.65168

  WITH EQUILIBRIUM REACTIONS

 Cp, KJ/(KG)(K)    2.4355   2.7081
 CONDUCTIVITY      5.3615   5.0833
 PRANDTL NUMBER    0.3220   0.3472

  WITH FROZEN REACTIONS

 Cp, KJ/(KG)(K)    2.2716   2.2241
 CONDUCTIVITY      5.2218   4.7064
 PRANDTL NUMBER    0.3083   0.3080

 PERFORMANCE PARAMETERS

 Ae/At                      1.0000
 CSTAR, M/SEC               1275.2
 CF                         0.7038
 Ivac, M/SEC                1598.8
 Isp, M/SEC                  897.4


 MASS FRACTIONS

 CH4              0.00152  0.00257
 *CO              0.54877  0.54253
 *CO2             0.00073  0.00324
 HCN              0.00020  0.00004
 *H2              0.06659  0.06611
 H2O              0.00100  0.00296
 NH3              0.00002  0.00002
 *N2              0.31812  0.31821
 C(gr)            0.06305  0.06433

  * THERMODYNAMIC PROPERTIES FITTED TO 20000.K

 NOTE. WEIGHT FRACTION OF FUEL IN TOTAL FUELS AND OF OXIDANT IN TOTAL OXIDANTS










              THEORETICAL ROCKET PERFORMANCE ASSUMING EQUILIBRIUM

           COMPOSITION DURING EXPANSION FROM INFINITE AREA COMBUSTOR

 Pin =    35.0 PSIA
 CASE = _______________

             REACTANT                    WT FRACTION      ENERGY      TEMP
                                          (SEE NOTE)     KJ/KG-MOL      K  
 FUEL        C3H8O,2propanol              1.0000000         0.000      0.000
 OXIDANT     N2O                          1.0000000         0.000      0.000

 O/F=    1.00000  %FUEL= 50.000000  R,EQ.RATIO= 4.227617  PHI,EQ.RATIO= 6.591481

                 CHAMBER   THROAT
 Pinf/P            1.0000   1.8043
 P, BAR            2.4132   1.3374
 T, K             1361.79  1206.14
 RHO, KG/CU M    3.3333-1 2.0990-1
 H, KJ/KG        -0.00000  -400.73
 U, KJ/KG         -723.95 -1037.91
 G, KJ/KG        -18505.1 -16790.7
 S, KJ/(KG)(K)    13.5888  13.5888

 M, (1/n)          15.640   15.739
 MW, MOL WT        14.461   14.507
 (dLV/dLP)t      -1.00584 -1.01177
 (dLV/dLT)p        1.0579   1.1428
 Cp, KJ/(KG)(K)    2.5881   3.1834
 GAMMAs            1.2887   1.2578
 SON VEL,M/SEC      965.9    895.2
 MACH NUMBER        0.000    1.000

 TRANSPORT PROPERTIES (GASES ONLY)
   CONDUCTIVITY IN UNITS OF MILLIWATTS/(CM)(K)

 VISC,MILLIPOISE  0.71101  0.65754

  WITH EQUILIBRIUM REACTIONS

 Cp, KJ/(KG)(K)    2.6270   3.1381
 CONDUCTIVITY      5.5211   5.4487
 PRANDTL NUMBER    0.3383   0.3787

  WITH FROZEN REACTIONS

 Cp, KJ/(KG)(K)    2.2749   2.2313
 CONDUCTIVITY      5.2206   4.7282
 PRANDTL NUMBER    0.3098   0.3103

 PERFORMANCE PARAMETERS

 Ae/At                      1.0000
 CSTAR, M/SEC               1284.2
 CF                         0.6971
 Ivac, M/SEC                1607.0
 Isp, M/SEC                  895.2


 MASS FRACTIONS

 CH4              0.00351  0.00535
 *CO              0.54571  0.53497
 *CO2             0.00162  0.00586
 HCN              0.00022  0.00005
 *H2              0.06594  0.06510
 H2O              0.00224  0.00567
 NH3              0.00004  0.00004
 *N2              0.31809  0.31818
 C(gr)            0.06262  0.06477

  * THERMODYNAMIC PROPERTIES FITTED TO 20000.K

 NOTE. WEIGHT FRACTION OF FUEL IN TOTAL FUELS AND OF OXIDANT IN TOTAL OXIDANTS










              THEORETICAL ROCKET PERFORMANCE ASSUMING EQUILIBRIUM

           COMPOSITION DURING EXPANSION FROM INFINITE AREA COMBUSTOR

 Pin =    56.0 PSIA
 CASE = _______________

             REACTANT                    WT FRACTION      ENERGY      TEMP
                                          (SEE NOTE)     KJ/KG-MOL      K  
 FUEL        C3H8O,2propanol              1.0000000         0.000      0.000
 OXIDANT     N2O                          1.0000000         0.000      0.000

 O/F=    1.00000  %FUEL= 50.000000  R,EQ.RATIO= 4.227617  PHI,EQ.RATIO= 6.591481

                 CHAMBER   THROAT
 Pinf/P            1.0000   1.7980
 P, BAR            3.8610   2.1474
 T, K             1370.81  1221.17
 RHO, KG/CU M    5.3135-1 3.3435-1
 H, KJ/KG        -0.00000  -400.64
 U, KJ/KG         -726.65 -1042.90
 G, KJ/KG        -18285.6 -16690.1
 S, KJ/(KG)(K)    13.3393  13.3393

 M, (1/n)          15.685   15.809
 MW, MOL WT        14.507   14.566
 (dLV/dLP)t      -1.00857 -1.01579
 (dLV/dLT)p        1.0842   1.1877
 Cp, KJ/(KG)(K)    2.7327   3.4633
 GAMMAs            1.2811   1.2476
 SON VEL,M/SEC      964.9    895.1
 MACH NUMBER        0.000    1.000

 TRANSPORT PROPERTIES (GASES ONLY)
   CONDUCTIVITY IN UNITS OF MILLIWATTS/(CM)(K)

 VISC,MILLIPOISE  0.71288  0.66136

  WITH EQUILIBRIUM REACTIONS

 Cp, KJ/(KG)(K)    2.7807   3.4244
 CONDUCTIVITY      5.6510   5.6966
 PRANDTL NUMBER    0.3508   0.3976

  WITH FROZEN REACTIONS

 Cp, KJ/(KG)(K)    2.2776   2.2362
 CONDUCTIVITY      5.2185   4.7385
 PRANDTL NUMBER    0.3111   0.3121

 PERFORMANCE PARAMETERS

 Ae/At                      1.0000
 CSTAR, M/SEC               1290.1
 CF                         0.6939
 Ivac, M/SEC                1612.6
 Isp, M/SEC                  895.1


 MASS FRACTIONS

 CH4              0.00526  0.00754
 *CO              0.54318  0.52987
 *CO2             0.00233  0.00754
 HCN              0.00024  0.00006
 *H2              0.06538  0.06433
 H2O              0.00328  0.00758
 NH3              0.00006  0.00006
 *N2              0.31807  0.31816
 C(gr)            0.06219  0.06485

  * THERMODYNAMIC PROPERTIES FITTED TO 20000.K

 NOTE. WEIGHT FRACTION OF FUEL IN TOTAL FUELS AND OF OXIDANT IN TOTAL OXIDANTS










              THEORETICAL ROCKET PERFORMANCE ASSUMING EQUILIBRIUM

           COMPOSITION DURING EXPANSION FROM INFINITE AREA COMBUSTOR

 Pin =    77.0 PSIA
 CASE = _______________

             REACTANT                    WT FRACTION      ENERGY      TEMP
                                          (SEE NOTE)     KJ/KG-MOL      K  
 FUEL        C3H8O,2propanol              1.0000000         0.000      0.000
 OXIDANT     N2O                          1.0000000         0.000      0.000

 O/F=    1.00000  %FUEL= 50.000000  R,EQ.RATIO= 4.227617  PHI,EQ.RATIO= 6.591481

                 CHAMBER   THROAT
 Pinf/P            1.0000   1.7943
 P, BAR            5.3089   2.9588
 T, K             1378.69  1232.90
 RHO, KG/CU M    7.2828-1 4.5795-1
 H, KJ/KG        -0.00000  -401.02
 U, KJ/KG         -728.97 -1047.12
 G, KJ/KG        -18158.3 -16639.2
 S, KJ/(KG)(K)    13.1707  13.1707

 M, (1/n)          15.725   15.866
 MW, MOL WT        14.548   14.615
 (dLV/dLP)t      -1.01093 -1.01896
 (dLV/dLT)p        1.1065   1.2219
 Cp, KJ/(KG)(K)    2.8530   3.6668
 GAMMAs            1.2755   1.2413
 SON VEL,M/SEC      964.3    895.6
 MACH NUMBER        0.000    1.000

 TRANSPORT PROPERTIES (GASES ONLY)
   CONDUCTIVITY IN UNITS OF MILLIWATTS/(CM)(K)

 VISC,MILLIPOISE  0.71449  0.66424

  WITH EQUILIBRIUM REACTIONS

 Cp, KJ/(KG)(K)    2.9084   3.6379
 CONDUCTIVITY      5.7602   5.8846
 PRANDTL NUMBER    0.3608   0.4106

  WITH FROZEN REACTIONS

 Cp, KJ/(KG)(K)    2.2800   2.2400
 CONDUCTIVITY      5.2159   4.7440
 PRANDTL NUMBER    0.3123   0.3136

 PERFORMANCE PARAMETERS

 Ae/At                      1.0000
 CSTAR, M/SEC               1294.5
 CF                         0.6918
 Ivac, M/SEC                1617.0
 Isp, M/SEC                  895.6


 MASS FRACTIONS

 CH4              0.00682  0.00939
 *CO              0.54102  0.52597
 *CO2             0.00294  0.00878
 HCN              0.00025  0.00007
 *H2              0.06488  0.06370
 H2O              0.00417  0.00907
 NH3              0.00008  0.00008
 *N2              0.31804  0.31814
 C(gr)            0.06177  0.06480

  * THERMODYNAMIC PROPERTIES FITTED TO 20000.K

 NOTE. WEIGHT FRACTION OF FUEL IN TOTAL FUELS AND OF OXIDANT IN TOTAL OXIDANTS










              THEORETICAL ROCKET PERFORMANCE ASSUMING EQUILIBRIUM

           COMPOSITION DURING EXPANSION FROM INFINITE AREA COMBUSTOR

 Pin =    98.0 PSIA
 CASE = _______________

             REACTANT                    WT FRACTION      ENERGY      TEMP
                                          (SEE NOTE)     KJ/KG-MOL      K  
 FUEL        C3H8O,2propanol              1.0000000         0.000      0.000
 OXIDANT     N2O                          1.0000000         0.000      0.000

 O/F=    1.00000  %FUEL= 50.000000  R,EQ.RATIO= 4.227617  PHI,EQ.RATIO= 6.591481

                 CHAMBER   THROAT
 Pinf/P            1.0000   1.7917
 P, BAR            6.7568   3.7711
 T, K             1385.72  1242.63
 RHO, KG/CU M    9.2431-1 5.8088-1
 H, KJ/KG        -0.00000  -401.56
 U, KJ/KG         -731.01 -1050.77
 G, KJ/KG        -18074.4 -16609.6
 S, KJ/(KG)(K)    13.0433  13.0433

 M, (1/n)          15.761   15.915
 MW, MOL WT        14.587   14.659
 (dLV/dLP)t      -1.01301 -1.02159
 (dLV/dLT)p        1.1259   1.2494
 Cp, KJ/(KG)(K)    2.9555   3.8251
 GAMMAs            1.2711   1.2371
 SON VEL,M/SEC      963.9    896.2
 MACH NUMBER        0.000    1.000

 TRANSPORT PROPERTIES (GASES ONLY)
   CONDUCTIVITY IN UNITS OF MILLIWATTS/(CM)(K)

 VISC,MILLIPOISE  0.71590  0.66656

  WITH EQUILIBRIUM REACTIONS

 Cp, KJ/(KG)(K)    3.0173   3.8068
 CONDUCTIVITY      5.8541   6.0358
 PRANDTL NUMBER    0.3690   0.4204

  WITH FROZEN REACTIONS

 Cp, KJ/(KG)(K)    2.2822   2.2431
 CONDUCTIVITY      5.2130   4.7471
 PRANDTL NUMBER    0.3134   0.3150

 PERFORMANCE PARAMETERS

 Ae/At                      1.0000
 CSTAR, M/SEC               1298.0
 CF                         0.6904
 Ivac, M/SEC                1620.6
 Isp, M/SEC                  896.2


 MASS FRACTIONS

 CH4              0.00825  0.01102
 *CO              0.53914  0.52282
 *CO2             0.00346  0.00975
 C2H4             0.00001  0.00000
 HCN              0.00027  0.00007
 *H2              0.06443  0.06315
 H2O              0.00496  0.01030
 NH3              0.00010  0.00010
 *N2              0.31802  0.31812
 C(gr)            0.06137  0.06466

  * THERMODYNAMIC PROPERTIES FITTED TO 20000.K

 NOTE. WEIGHT FRACTION OF FUEL IN TOTAL FUELS AND OF OXIDANT IN TOTAL OXIDANTS










              THEORETICAL ROCKET PERFORMANCE ASSUMING EQUILIBRIUM

           COMPOSITION DURING EXPANSION FROM INFINITE AREA COMBUSTOR

 Pin =   119.0 PSIA
 CASE = _______________

             REACTANT                    WT FRACTION      ENERGY      TEMP
                                          (SEE NOTE)     KJ/KG-MOL      K  
 FUEL        C3H8O,2propanol              1.0000000         0.000      0.000
 OXIDANT     N2O                          1.0000000         0.000      0.000

 O/F=    1.00000  %FUEL= 50.000000  R,EQ.RATIO= 4.227617  PHI,EQ.RATIO= 6.591481

                 CHAMBER   THROAT
 Pinf/P            1.0000   1.7899
 P, BAR            8.2047   4.5840
 T, K             1392.09  1251.00
 RHO, KG/CU M    1.1196 0 7.0324-1
 H, KJ/KG        -0.00000  -402.16
 U, KJ/KG         -732.84 -1053.99
 G, KJ/KG        -18015.0 -16591.3
 S, KJ/(KG)(K)    12.9410  12.9410

 M, (1/n)          15.794   15.957
 MW, MOL WT        14.622   14.698
 (dLV/dLP)t      -1.01488 -1.02384
 (dLV/dLT)p        1.1431   1.2725
 Cp, KJ/(KG)(K)    3.0445   3.9537
 GAMMAs            1.2675   1.2339
 SON VEL,M/SEC      963.8    896.8
 MACH NUMBER        0.000    1.000

 TRANSPORT PROPERTIES (GASES ONLY)
   CONDUCTIVITY IN UNITS OF MILLIWATTS/(CM)(K)

 VISC,MILLIPOISE  0.71715  0.66850

  WITH EQUILIBRIUM REACTIONS

 Cp, KJ/(KG)(K)    3.1118   3.9456
 CONDUCTIVITY      5.9364   6.1618
 PRANDTL NUMBER    0.3759   0.4281

  WITH FROZEN REACTIONS

 Cp, KJ/(KG)(K)    2.2842   2.2458
 CONDUCTIVITY      5.2099   4.7486
 PRANDTL NUMBER    0.3144   0.3162

 PERFORMANCE PARAMETERS

 Ae/At                      1.0000
 CSTAR, M/SEC               1300.9
 CF                         0.6894
 Ivac, M/SEC                1623.6
 Isp, M/SEC                  896.8


 MASS FRACTIONS

 CH4              0.00956  0.01247
 *CO              0.53746  0.52017
 *CO2             0.00391  0.01055
 C2H4             0.00001  0.00000
 HCN              0.00028  0.00008
 *H2              0.06402  0.06266
 H2O              0.00567  0.01135
 NH3              0.00012  0.00011
 *N2              0.31800  0.31811
 C(gr)            0.06097  0.06449

  * THERMODYNAMIC PROPERTIES FITTED TO 20000.K

 NOTE. WEIGHT FRACTION OF FUEL IN TOTAL FUELS AND OF OXIDANT IN TOTAL OXIDANTS










              THEORETICAL ROCKET PERFORMANCE ASSUMING EQUILIBRIUM

           COMPOSITION DURING EXPANSION FROM INFINITE AREA COMBUSTOR

 Pin =   140.0 PSIA
 CASE = _______________

             REACTANT                    WT FRACTION      ENERGY      TEMP
                                          (SEE NOTE)     KJ/KG-MOL      K  
 FUEL        C3H8O,2propanol              1.0000000         0.000      0.000
 OXIDANT     N2O                          1.0000000         0.000      0.000

 O/F=    1.00000  %FUEL= 50.000000  R,EQ.RATIO= 4.227617  PHI,EQ.RATIO= 6.591481

                 CHAMBER   THROAT
 Pinf/P            1.0000   1.7884
 P, BAR            9.6526   5.3972
 T, K             1397.91  1258.36
 RHO, KG/CU M    1.3142 0 8.2513-1
 H, KJ/KG        -0.00000  -402.76
 U, KJ/KG         -734.49 -1056.86
 G, KJ/KG        -17970.9 -16579.7
 S, KJ/(KG)(K)    12.8555  12.8555

 M, (1/n)          15.825   15.996
 MW, MOL WT        14.655   14.734
 (dLV/dLP)t      -1.01657 -1.02581
 (dLV/dLT)p        1.1584   1.2924
 Cp, KJ/(KG)(K)    3.1230   4.0613
 GAMMAs            1.2645   1.2315
 SON VEL,M/SEC      963.7    897.5
 MACH NUMBER        0.000    1.000

 TRANSPORT PROPERTIES (GASES ONLY)
   CONDUCTIVITY IN UNITS OF MILLIWATTS/(CM)(K)

 VISC,MILLIPOISE  0.71829  0.67018

  WITH EQUILIBRIUM REACTIONS

 Cp, KJ/(KG)(K)    3.1951   4.0626
 CONDUCTIVITY      6.0094   6.2695
 PRANDTL NUMBER    0.3819   0.4343

  WITH FROZEN REACTIONS

 Cp, KJ/(KG)(K)    2.2860   2.2482
 CONDUCTIVITY      5.2067   4.7492
 PRANDTL NUMBER    0.3154   0.3173

 PERFORMANCE PARAMETERS

 Ae/At                      1.0000
 CSTAR, M/SEC               1303.4
 CF                         0.6886
 Ivac, M/SEC                1626.3
 Isp, M/SEC                  897.5


 MASS FRACTIONS

 CH4              0.01077  0.01379
 *CO              0.53594  0.51787
 *CO2             0.00432  0.01123
 C2H4             0.00001  0.00000
 HCN              0.00029  0.00008
 *H2              0.06364  0.06222
 H2O              0.00631  0.01227
 NH3              0.00013  0.00013
 *N2              0.31798  0.31809
 C(gr)            0.06059  0.06430

  * THERMODYNAMIC PROPERTIES FITTED TO 20000.K

 NOTE. WEIGHT FRACTION OF FUEL IN TOTAL FUELS AND OF OXIDANT IN TOTAL OXIDANTS










              THEORETICAL ROCKET PERFORMANCE ASSUMING EQUILIBRIUM

           COMPOSITION DURING EXPANSION FROM INFINITE AREA COMBUSTOR

 Pin =   161.0 PSIA
 CASE = _______________

             REACTANT                    WT FRACTION      ENERGY      TEMP
                                          (SEE NOTE)     KJ/KG-MOL      K  
 FUEL        C3H8O,2propanol              1.0000000         0.000      0.000
 OXIDANT     N2O                          1.0000000         0.000      0.000

 O/F=    1.00000  %FUEL= 50.000000  R,EQ.RATIO= 4.227617  PHI,EQ.RATIO= 6.591481

                 CHAMBER   THROAT
 Pinf/P            1.0000   1.7873
 P, BAR            11.101   6.2107
 T, K             1403.29  1264.96
 RHO, KG/CU M    1.5082 0 9.4661-1
 H, KJ/KG        -0.00000  -403.35
 U, KJ/KG         -736.00 -1059.45
 G, KJ/KG        -17937.1 -16572.3
 S, KJ/(KG)(K)    12.7822  12.7822

 M, (1/n)          15.853   16.030
 MW, MOL WT        14.686   14.767
 (dLV/dLP)t      -1.01812 -1.02756
 (dLV/dLT)p        1.1723   1.3097
 Cp, KJ/(KG)(K)    3.1930   4.1533
 GAMMAs            1.2620   1.2295
 SON VEL,M/SEC      963.8    898.2
 MACH NUMBER        0.000    1.000

 TRANSPORT PROPERTIES (GASES ONLY)
   CONDUCTIVITY IN UNITS OF MILLIWATTS/(CM)(K)

 VISC,MILLIPOISE  0.71932  0.67165

  WITH EQUILIBRIUM REACTIONS

 Cp, KJ/(KG)(K)    3.2692   4.1632
 CONDUCTIVITY      6.0750   6.3633
 PRANDTL NUMBER    0.3871   0.4394

  WITH FROZEN REACTIONS

 Cp, KJ/(KG)(K)    2.2876   2.2503
 CONDUCTIVITY      5.2034   4.7491
 PRANDTL NUMBER    0.3162   0.3183

 PERFORMANCE PARAMETERS

 Ae/At                      1.0000
 CSTAR, M/SEC               1305.6
 CF                         0.6879
 Ivac, M/SEC                1628.7
 Isp, M/SEC                  898.2


 MASS FRACTIONS

 CH4              0.01191  0.01501
 *CO              0.53457  0.51585
 *CO2             0.00469  0.01182
 C2H4             0.00001  0.00000
 HCN              0.00031  0.00009
 *H2              0.06328  0.06182
 H2O              0.00689  0.01309
 NH3              0.00015  0.00014
 *N2              0.31796  0.31808
 C(gr)            0.06022  0.06409

  * THERMODYNAMIC PROPERTIES FITTED TO 20000.K

 NOTE. WEIGHT FRACTION OF FUEL IN TOTAL FUELS AND OF OXIDANT IN TOTAL OXIDANTS










              THEORETICAL ROCKET PERFORMANCE ASSUMING EQUILIBRIUM

           COMPOSITION DURING EXPANSION FROM INFINITE AREA COMBUSTOR

 Pin =   182.0 PSIA
 CASE = _______________

             REACTANT                    WT FRACTION      ENERGY      TEMP
                                          (SEE NOTE)     KJ/KG-MOL      K  
 FUEL        C3H8O,2propanol              1.0000000         0.000      0.000
 OXIDANT     N2O                          1.0000000         0.000      0.000

 O/F=    1.00000  %FUEL= 50.000000  R,EQ.RATIO= 4.227617  PHI,EQ.RATIO= 6.591481

                 CHAMBER   THROAT
 Pinf/P            1.0000   1.7864
 P, BAR            12.548   7.0245
 T, K             1408.30  1270.95
 RHO, KG/CU M    1.7017 0 1.0677 0
 H, KJ/KG         0.00000  -403.92
 U, KJ/KG         -737.39 -1061.82
 G, KJ/KG        -17910.6 -16567.7
 S, KJ/(KG)(K)    12.7179  12.7179

 M, (1/n)          15.879   16.062
 MW, MOL WT        14.715   14.798
 (dLV/dLP)t      -1.01955 -1.02914
 (dLV/dLT)p        1.1850   1.3252
 Cp, KJ/(KG)(K)    3.2560   4.2332
 GAMMAs            1.2599   1.2279
 SON VEL,M/SEC      963.9    898.8
 MACH NUMBER        0.000    1.000

 TRANSPORT PROPERTIES (GASES ONLY)
   CONDUCTIVITY IN UNITS OF MILLIWATTS/(CM)(K)

 VISC,MILLIPOISE  0.72027  0.67297

  WITH EQUILIBRIUM REACTIONS

 Cp, KJ/(KG)(K)    3.3359   4.2510
 CONDUCTIVITY      6.1343   6.4462
 PRANDTL NUMBER    0.3917   0.4438

  WITH FROZEN REACTIONS

 Cp, KJ/(KG)(K)    2.2892   2.2522
 CONDUCTIVITY      5.2001   4.7485
 PRANDTL NUMBER    0.3171   0.3192

 PERFORMANCE PARAMETERS

 Ae/At                      1.0000
 CSTAR, M/SEC               1307.6
 CF                         0.6874
 Ivac, M/SEC                1630.8
 Isp, M/SEC                  898.8


 MASS FRACTIONS

 CH4              0.01299  0.01614
 *CO              0.53330  0.51404
 *CO2             0.00502  0.01234
 C2H4             0.00001  0.00000
 HCN              0.00032  0.00009
 *H2              0.06295  0.06145
 H2O              0.00743  0.01383
 NH3              0.00017  0.00015
 *N2              0.31794  0.31807
 C(gr)            0.05986  0.06387

  * THERMODYNAMIC PROPERTIES FITTED TO 20000.K

 NOTE. WEIGHT FRACTION OF FUEL IN TOTAL FUELS AND OF OXIDANT IN TOTAL OXIDANTS










              THEORETICAL ROCKET PERFORMANCE ASSUMING EQUILIBRIUM

           COMPOSITION DURING EXPANSION FROM INFINITE AREA COMBUSTOR

 Pin =   203.0 PSIA
 CASE = _______________

             REACTANT                    WT FRACTION      ENERGY      TEMP
                                          (SEE NOTE)     KJ/KG-MOL      K  
 FUEL        C3H8O,2propanol              1.0000000         0.000      0.000
 OXIDANT     N2O                          1.0000000         0.000      0.000

 O/F=    1.00000  %FUEL= 50.000000  R,EQ.RATIO= 4.227617  PHI,EQ.RATIO= 6.591481

                 CHAMBER   THROAT
 Pinf/P            1.0000   1.7856
 P, BAR            13.996   7.8385
 T, K             1412.98  1276.44
 RHO, KG/CU M    1.8948 0 1.1885 0
 H, KJ/KG        -0.00000  -404.47
 U, KJ/KG         -738.68 -1063.99
 G, KJ/KG        -17889.4 -16565.1
 S, KJ/(KG)(K)    12.6608  12.6608

 M, (1/n)          15.904   16.092
 MW, MOL WT        14.743   14.827
 (dLV/dLP)t      -1.02088 -1.03058
 (dLV/dLT)p        1.1967   1.3391
 Cp, KJ/(KG)(K)    3.3132   4.3035
 GAMMAs            1.2580   1.2265
 SON VEL,M/SEC      964.0    899.4
 MACH NUMBER        0.000    1.000

 TRANSPORT PROPERTIES (GASES ONLY)
   CONDUCTIVITY IN UNITS OF MILLIWATTS/(CM)(K)

 VISC,MILLIPOISE  0.72114  0.67416

  WITH EQUILIBRIUM REACTIONS

 Cp, KJ/(KG)(K)    3.3963   4.3285
 CONDUCTIVITY      6.1884   6.5202
 PRANDTL NUMBER    0.3958   0.4475

  WITH FROZEN REACTIONS

 Cp, KJ/(KG)(K)    2.2906   2.2540
 CONDUCTIVITY      5.1968   4.7476
 PRANDTL NUMBER    0.3179   0.3201

 PERFORMANCE PARAMETERS

 Ae/At                      1.0000
 CSTAR, M/SEC               1309.3
 CF                         0.6869
 Ivac, M/SEC                1632.7
 Isp, M/SEC                  899.4


 MASS FRACTIONS

 CH4              0.01400  0.01720
 *CO              0.53213  0.51240
 *CO2             0.00533  0.01280
 C2H4             0.00001  0.00001
 HCN              0.00033  0.00010
 *H2              0.06264  0.06111
 H2O              0.00794  0.01450
 NH3              0.00018  0.00017
 *N2              0.31792  0.31805
 C(gr)            0.05951  0.06365

  * THERMODYNAMIC PROPERTIES FITTED TO 20000.K

 NOTE. WEIGHT FRACTION OF FUEL IN TOTAL FUELS AND OF OXIDANT IN TOTAL OXIDANTS










              THEORETICAL ROCKET PERFORMANCE ASSUMING EQUILIBRIUM

           COMPOSITION DURING EXPANSION FROM INFINITE AREA COMBUSTOR

 Pin =   224.0 PSIA
 CASE = _______________

             REACTANT                    WT FRACTION      ENERGY      TEMP
                                          (SEE NOTE)     KJ/KG-MOL      K  
 FUEL        C3H8O,2propanol              1.0000000         0.000      0.000
 OXIDANT     N2O                          1.0000000         0.000      0.000

 O/F=    1.00000  %FUEL= 50.000000  R,EQ.RATIO= 4.227617  PHI,EQ.RATIO= 6.591481

                 CHAMBER   THROAT
 Pinf/P            1.0000   1.7849
 P, BAR            15.444   8.6526
 T, K             1417.38  1281.51
 RHO, KG/CU M    2.0874 0 1.3090 0
 H, KJ/KG        -0.00000  -405.00
 U, KJ/KG         -739.88 -1066.01
 G, KJ/KG        -17872.3 -16564.0
 S, KJ/(KG)(K)    12.6094  12.6094

 M, (1/n)          15.928   16.119
 MW, MOL WT        14.769   14.855
 (dLV/dLP)t      -1.02211 -1.03191
 (dLV/dLT)p        1.2075   1.3516
 Cp, KJ/(KG)(K)    3.3654   4.3661
 GAMMAs            1.2563   1.2254
 SON VEL,M/SEC      964.1    900.0
 MACH NUMBER        0.000    1.000

 TRANSPORT PROPERTIES (GASES ONLY)
   CONDUCTIVITY IN UNITS OF MILLIWATTS/(CM)(K)

 VISC,MILLIPOISE  0.72196  0.67524

  WITH EQUILIBRIUM REACTIONS

 Cp, KJ/(KG)(K)    3.4515   4.3976
 CONDUCTIVITY      6.2381   6.5869
 PRANDTL NUMBER    0.3995   0.4508

  WITH FROZEN REACTIONS

 Cp, KJ/(KG)(K)    2.2920   2.2556
 CONDUCTIVITY      5.1935   4.7464
 PRANDTL NUMBER    0.3186   0.3209

 PERFORMANCE PARAMETERS

 Ae/At                      1.0000
 CSTAR, M/SEC               1311.0
 CF                         0.6865
 Ivac, M/SEC                1634.5
 Isp, M/SEC                  900.0


 MASS FRACTIONS

 CH4              0.01496  0.01819
 *CO              0.53104  0.51091
 *CO2             0.00561  0.01322
 C2H4             0.00001  0.00001
 HCN              0.00034  0.00010
 *H2              0.06234  0.06079
 H2O              0.00840  0.01512
 NH3              0.00020  0.00018
 *N2              0.31790  0.31804
 C(gr)            0.05918  0.06343

  * THERMODYNAMIC PROPERTIES FITTED TO 20000.K

 NOTE. WEIGHT FRACTION OF FUEL IN TOTAL FUELS AND OF OXIDANT IN TOTAL OXIDANTS










              THEORETICAL ROCKET PERFORMANCE ASSUMING EQUILIBRIUM

           COMPOSITION DURING EXPANSION FROM INFINITE AREA COMBUSTOR

 Pin =   245.0 PSIA
 CASE = _______________

             REACTANT                    WT FRACTION      ENERGY      TEMP
                                          (SEE NOTE)     KJ/KG-MOL      K  
 FUEL        C3H8O,2propanol              1.0000000         0.000      0.000
 OXIDANT     N2O                          1.0000000         0.000      0.000

 O/F=    1.00000  %FUEL= 50.000000  R,EQ.RATIO= 4.227617  PHI,EQ.RATIO= 6.591481

                 CHAMBER   THROAT
 Pinf/P            1.0000   1.7843
 P, BAR            16.892   9.4668
 T, K             1421.54  1286.24
 RHO, KG/CU M    2.2796 0 1.4292 0
 H, KJ/KG         0.00000  -405.50
 U, KJ/KG         -741.00 -1067.88
 G, KJ/KG        -17858.3 -16564.0
 S, KJ/(KG)(K)    12.5626  12.5626

 M, (1/n)          15.951   16.145
 MW, MOL WT        14.794   14.881
 (dLV/dLP)t      -1.02327 -1.03313
 (dLV/dLT)p        1.2175   1.3631
 Cp, KJ/(KG)(K)    3.4134   4.4223
 GAMMAs            1.2548   1.2244
 SON VEL,M/SEC      964.3    900.6
 MACH NUMBER        0.000    1.000

 TRANSPORT PROPERTIES (GASES ONLY)
   CONDUCTIVITY IN UNITS OF MILLIWATTS/(CM)(K)

 VISC,MILLIPOISE  0.72273  0.67624

  WITH EQUILIBRIUM REACTIONS

 Cp, KJ/(KG)(K)    3.5020   4.4598
 CONDUCTIVITY      6.2840   6.6475
 PRANDTL NUMBER    0.4028   0.4537

  WITH FROZEN REACTIONS

 Cp, KJ/(KG)(K)    2.2933   2.2572
 CONDUCTIVITY      5.1902   4.7451
 PRANDTL NUMBER    0.3193   0.3217

 PERFORMANCE PARAMETERS

 Ae/At                      1.0000
 CSTAR, M/SEC               1312.4
 CF                         0.6862
 Ivac, M/SEC                1636.1
 Isp, M/SEC                  900.6


 MASS FRACTIONS

 CH4              0.01588  0.01914
 *CO              0.53002  0.50954
 *CO2             0.00587  0.01360
 C2H4             0.00002  0.00001
 HCN              0.00035  0.00011
 *H2              0.06205  0.06049
 H2O              0.00884  0.01569
 NH3              0.00021  0.00019
 *N2              0.31788  0.31803
 C(gr)            0.05885  0.06321

  * THERMODYNAMIC PROPERTIES FITTED TO 20000.K

 NOTE. WEIGHT FRACTION OF FUEL IN TOTAL FUELS AND OF OXIDANT IN TOTAL OXIDANTS










              THEORETICAL ROCKET PERFORMANCE ASSUMING EQUILIBRIUM

           COMPOSITION DURING EXPANSION FROM INFINITE AREA COMBUSTOR

 Pin =   266.0 PSIA
 CASE = _______________

             REACTANT                    WT FRACTION      ENERGY      TEMP
                                          (SEE NOTE)     KJ/KG-MOL      K  
 FUEL        C3H8O,2propanol              1.0000000         0.000      0.000
 OXIDANT     N2O                          1.0000000         0.000      0.000

 O/F=    1.00000  %FUEL= 50.000000  R,EQ.RATIO= 4.227617  PHI,EQ.RATIO= 6.591481

                 CHAMBER   THROAT
 Pinf/P            1.0000   1.7838
 P, BAR            18.340   10.281
 T, K             1425.48  1290.66
 RHO, KG/CU M    2.4715 0 1.5492 0
 H, KJ/KG        -0.00000  -405.98
 U, KJ/KG         -742.06 -1069.64
 G, KJ/KG        -17846.7 -16564.8
 S, KJ/(KG)(K)    12.5198  12.5198

 M, (1/n)          15.972   16.170
 MW, MOL WT        14.819   14.906
 (dLV/dLP)t      -1.02436 -1.03427
 (dLV/dLT)p        1.2268   1.3737
 Cp, KJ/(KG)(K)    3.4577   4.4731
 GAMMAs            1.2535   1.2235
 SON VEL,M/SEC      964.5    901.1
 MACH NUMBER        0.000    1.000

 TRANSPORT PROPERTIES (GASES ONLY)
   CONDUCTIVITY IN UNITS OF MILLIWATTS/(CM)(K)

 VISC,MILLIPOISE  0.72345  0.67717

  WITH EQUILIBRIUM REACTIONS

 Cp, KJ/(KG)(K)    3.5487   4.5161
 CONDUCTIVITY      6.3265   6.7030
 PRANDTL NUMBER    0.4058   0.4562

  WITH FROZEN REACTIONS

 Cp, KJ/(KG)(K)    2.2945   2.2586
 CONDUCTIVITY      5.1869   4.7436
 PRANDTL NUMBER    0.3200   0.3224

 PERFORMANCE PARAMETERS

 Ae/At                     1.00000
 CSTAR, M/SEC               1313.8
 CF                         0.6859
 Ivac, M/SEC                1637.6
 Isp, M/SEC                  901.1


 MASS FRACTIONS

 CH4              0.01676  0.02003
 *CO              0.52906  0.50827
 *CO2             0.00612  0.01395
 C2H4             0.00002  0.00001
 HCN              0.00036  0.00011
 *H2              0.06178  0.06020
 H2O              0.00926  0.01622
 NH3              0.00022  0.00020
 *N2              0.31787  0.31802
 C(gr)            0.05853  0.06299

  * THERMODYNAMIC PROPERTIES FITTED TO 20000.K

 NOTE. WEIGHT FRACTION OF FUEL IN TOTAL FUELS AND OF OXIDANT IN TOTAL OXIDANTS










              THEORETICAL ROCKET PERFORMANCE ASSUMING EQUILIBRIUM

           COMPOSITION DURING EXPANSION FROM INFINITE AREA COMBUSTOR

 Pin =   287.0 PSIA
 CASE = _______________

             REACTANT                    WT FRACTION      ENERGY      TEMP
                                          (SEE NOTE)     KJ/KG-MOL      K  
 FUEL        C3H8O,2propanol              1.0000000         0.000      0.000
 OXIDANT     N2O                          1.0000000         0.000      0.000

 O/F=    1.00000  %FUEL= 50.000000  R,EQ.RATIO= 4.227617  PHI,EQ.RATIO= 6.591481

                 CHAMBER   THROAT
 Pinf/P            1.0000   1.7834
 P, BAR            19.788   11.096
 T, K             1429.23  1294.82
 RHO, KG/CU M    2.6630 0 1.6689 0
 H, KJ/KG         0.00000  -406.45
 U, KJ/KG         -743.06 -1071.28
 G, KJ/KG        -17837.2 -16566.1
 S, KJ/(KG)(K)    12.4802  12.4802

 M, (1/n)          15.992   16.193
 MW, MOL WT        14.842   14.930
 (dLV/dLP)t      -1.02538 -1.03533
 (dLV/dLT)p        1.2356   1.3835
 Cp, KJ/(KG)(K)    3.4988   4.5194
 GAMMAs            1.2523   1.2227
 SON VEL,M/SEC      964.6    901.6
 MACH NUMBER        0.000    1.000

 TRANSPORT PROPERTIES (GASES ONLY)
   CONDUCTIVITY IN UNITS OF MILLIWATTS/(CM)(K)

 VISC,MILLIPOISE  0.72412  0.67803

  WITH EQUILIBRIUM REACTIONS

 Cp, KJ/(KG)(K)    3.5919   4.5674
 CONDUCTIVITY      6.3661   6.7540
 PRANDTL NUMBER    0.4086   0.4585

  WITH FROZEN REACTIONS

 Cp, KJ/(KG)(K)    2.2957   2.2599
 CONDUCTIVITY      5.1837   4.7420
 PRANDTL NUMBER    0.3207   0.3231

 PERFORMANCE PARAMETERS

 Ae/At                      1.0000
 CSTAR, M/SEC               1315.1
 CF                         0.6856
 Ivac, M/SEC                1639.0
 Isp, M/SEC                  901.6


 MASS FRACTIONS

 CH4              0.01760  0.02088
 *CO              0.52816  0.50708
 *CO2             0.00635  0.01427
 C2H4             0.00002  0.00001
 HCN              0.00037  0.00012
 *H2              0.06153  0.05993
 H2O              0.00965  0.01672
 NH3              0.00024  0.00021
 *N2              0.31785  0.31800
 C(gr)            0.05822  0.06277

  * THERMODYNAMIC PROPERTIES FITTED TO 20000.K

 NOTE. WEIGHT FRACTION OF FUEL IN TOTAL FUELS AND OF OXIDANT IN TOTAL OXIDANTS










              THEORETICAL ROCKET PERFORMANCE ASSUMING EQUILIBRIUM

           COMPOSITION DURING EXPANSION FROM INFINITE AREA COMBUSTOR

 Pin =   308.0 PSIA
 CASE = _______________

             REACTANT                    WT FRACTION      ENERGY      TEMP
                                          (SEE NOTE)     KJ/KG-MOL      K  
 FUEL        C3H8O,2propanol              1.0000000         0.000      0.000
 OXIDANT     N2O                          1.0000000         0.000      0.000

 O/F=    1.00000  %FUEL= 50.000000  R,EQ.RATIO= 4.227617  PHI,EQ.RATIO= 6.591481

                 CHAMBER   THROAT
 Pinf/P            1.0000   1.7830
 P, BAR            21.236   11.910
 T, K             1432.81  1298.75
 RHO, KG/CU M    2.8542 0 1.7885 0
 H, KJ/KG        -0.00000  -406.89
 U, KJ/KG         -744.01 -1072.84
 G, KJ/KG        -17829.2 -16568.0
 S, KJ/(KG)(K)    12.4435  12.4435

 M, (1/n)          16.012   16.215
 MW, MOL WT        14.864   14.953
 (dLV/dLP)t      -1.02636 -1.03632
 (dLV/dLT)p        1.2438   1.3926
 Cp, KJ/(KG)(K)    3.5371   4.5617
 GAMMAs            1.2512   1.2220
 SON VEL,M/SEC      964.8    902.1
 MACH NUMBER        0.000    1.000

 TRANSPORT PROPERTIES (GASES ONLY)
   CONDUCTIVITY IN UNITS OF MILLIWATTS/(CM)(K)

 VISC,MILLIPOISE  0.72476  0.67883

  WITH EQUILIBRIUM REACTIONS

 Cp, KJ/(KG)(K)    3.6321   4.6143
 CONDUCTIVITY      6.4031   6.8012
 PRANDTL NUMBER    0.4111   0.4606

  WITH FROZEN REACTIONS

 Cp, KJ/(KG)(K)    2.2968   2.2612
 CONDUCTIVITY      5.1805   4.7403
 PRANDTL NUMBER    0.3213   0.3238

 PERFORMANCE PARAMETERS

 Ae/At                      1.0000
 CSTAR, M/SEC               1316.2
 CF                         0.6854
 Ivac, M/SEC                1640.3
 Isp, M/SEC                  902.1


 MASS FRACTIONS

 CH4              0.01840  0.02169
 *CO              0.52730  0.50598
 *CO2             0.00657  0.01457
 C2H4             0.00002  0.00001
 HCN              0.00038  0.00012
 *H2              0.06128  0.05967
 H2O              0.01002  0.01719
 NH3              0.00025  0.00022
 *N2              0.31783  0.31799
 C(gr)            0.05792  0.06255

  * THERMODYNAMIC PROPERTIES FITTED TO 20000.K

 NOTE. WEIGHT FRACTION OF FUEL IN TOTAL FUELS AND OF OXIDANT IN TOTAL OXIDANTS










              THEORETICAL ROCKET PERFORMANCE ASSUMING EQUILIBRIUM

           COMPOSITION DURING EXPANSION FROM INFINITE AREA COMBUSTOR

 Pin =   329.0 PSIA
 CASE = _______________

             REACTANT                    WT FRACTION      ENERGY      TEMP
                                          (SEE NOTE)     KJ/KG-MOL      K  
 FUEL        C3H8O,2propanol              1.0000000         0.000      0.000
 OXIDANT     N2O                          1.0000000         0.000      0.000

 O/F=    1.00000  %FUEL= 50.000000  R,EQ.RATIO= 4.227617  PHI,EQ.RATIO= 6.591481

                 CHAMBER   THROAT
 Pinf/P            1.0000   1.7826
 P, BAR            22.684   12.725
 T, K             1436.23  1302.48
 RHO, KG/CU M    3.0452 0 1.9078 0
 H, KJ/KG         0.00000  -407.32
 U, KJ/KG         -744.91 -1074.31
 G, KJ/KG        -17822.7 -16570.2
 S, KJ/(KG)(K)    12.4093  12.4093

 M, (1/n)          16.031   16.236
 MW, MOL WT        14.886   14.974
 (dLV/dLP)t      -1.02728 -1.03726
 (dLV/dLT)p        1.2516   1.4010
 Cp, KJ/(KG)(K)    3.5728   4.6007
 GAMMAs            1.2502   1.2213
 SON VEL,M/SEC      965.0    902.6
 MACH NUMBER        0.000    1.000

 TRANSPORT PROPERTIES (GASES ONLY)
   CONDUCTIVITY IN UNITS OF MILLIWATTS/(CM)(K)

 VISC,MILLIPOISE  0.72537  0.67959

  WITH EQUILIBRIUM REACTIONS

 Cp, KJ/(KG)(K)    3.6695   4.6575
 CONDUCTIVITY      6.4378   6.8450
 PRANDTL NUMBER    0.4135   0.4624

  WITH FROZEN REACTIONS

 Cp, KJ/(KG)(K)    2.2978   2.2624
 CONDUCTIVITY      5.1773   4.7386
 PRANDTL NUMBER    0.3219   0.3245

 PERFORMANCE PARAMETERS

 Ae/At                      1.0000
 CSTAR, M/SEC               1317.4
 CF                         0.6851
 Ivac, M/SEC                1641.6
 Isp, M/SEC                  902.6


 MASS FRACTIONS

 CH4              0.01918  0.02247
 *CO              0.52649  0.50493
 *CO2             0.00678  0.01485
 CH3CN            0.00001  0.00000
 C2H4             0.00002  0.00001
 HCN              0.00039  0.00013
 *H2              0.06104  0.05942
 H2O              0.01038  0.01763
 NH3              0.00026  0.00023
 *N2              0.31782  0.31798
 C(gr)            0.05762  0.06234

  * THERMODYNAMIC PROPERTIES FITTED TO 20000.K

 NOTE. WEIGHT FRACTION OF FUEL IN TOTAL FUELS AND OF OXIDANT IN TOTAL OXIDANTS










              THEORETICAL ROCKET PERFORMANCE ASSUMING EQUILIBRIUM

           COMPOSITION DURING EXPANSION FROM INFINITE AREA COMBUSTOR

 Pin =   350.0 PSIA
 CASE = _______________

             REACTANT                    WT FRACTION      ENERGY      TEMP
                                          (SEE NOTE)     KJ/KG-MOL      K  
 FUEL        C3H8O,2propanol              1.0000000         0.000      0.000
 OXIDANT     N2O                          1.0000000         0.000      0.000

 O/F=    1.00000  %FUEL= 50.000000  R,EQ.RATIO= 4.227617  PHI,EQ.RATIO= 6.591481

                 CHAMBER   THROAT
 Pinf/P            1.0000   1.7823
 P, BAR            24.132   13.540
 T, K             1439.51  1306.02
 RHO, KG/CU M    3.2358 0 2.0269 0
 H, KJ/KG        -0.00000  -407.72
 U, KJ/KG         -745.76 -1075.70
 G, KJ/KG        -17817.2 -16572.7
 S, KJ/(KG)(K)    12.3772  12.3772

 M, (1/n)          16.049   16.256
 MW, MOL WT        14.907   14.996
 (dLV/dLP)t      -1.02816 -1.03815
 (dLV/dLT)p        1.2589   1.4090
 Cp, KJ/(KG)(K)    3.6063   4.6366
 GAMMAs            1.2492   1.2208
 SON VEL,M/SEC      965.2    903.0
 MACH NUMBER        0.000    1.000

 TRANSPORT PROPERTIES (GASES ONLY)
   CONDUCTIVITY IN UNITS OF MILLIWATTS/(CM)(K)

 VISC,MILLIPOISE  0.72595  0.68030

  WITH EQUILIBRIUM REACTIONS

 Cp, KJ/(KG)(K)    3.7046   4.6974
 CONDUCTIVITY      6.4705   6.8858
 PRANDTL NUMBER    0.4156   0.4641

  WITH FROZEN REACTIONS

 Cp, KJ/(KG)(K)    2.2989   2.2635
 CONDUCTIVITY      5.1742   4.7368
 PRANDTL NUMBER    0.3225   0.3251

 PERFORMANCE PARAMETERS

 Ae/At                      1.0000
 CSTAR, M/SEC               1318.4
 CF                         0.6849
 Ivac, M/SEC                1642.7
 Isp, M/SEC                  903.0


 MASS FRACTIONS

 CH4              0.01993  0.02321
 *CO              0.52572  0.50395
 *CO2             0.00697  0.01511
 CH3CN            0.00001  0.00000
 C2H4             0.00002  0.00001
 HCN              0.00040  0.00013
 *H2              0.06081  0.05919
 H2O              0.01071  0.01805
 NH3              0.00028  0.00024
 *N2              0.31780  0.31797
 C(gr)            0.05733  0.06212

  * THERMODYNAMIC PROPERTIES FITTED TO 20000.K

 NOTE. WEIGHT FRACTION OF FUEL IN TOTAL FUELS AND OF OXIDANT IN TOTAL OXIDANTS










              THEORETICAL ROCKET PERFORMANCE ASSUMING EQUILIBRIUM

           COMPOSITION DURING EXPANSION FROM INFINITE AREA COMBUSTOR

 Pin =   371.0 PSIA
 CASE = _______________

             REACTANT                    WT FRACTION      ENERGY      TEMP
                                          (SEE NOTE)     KJ/KG-MOL      K  
 FUEL        C3H8O,2propanol              1.0000000         0.000      0.000
 OXIDANT     N2O                          1.0000000         0.000      0.000

 O/F=    1.00000  %FUEL= 50.000000  R,EQ.RATIO= 4.227617  PHI,EQ.RATIO= 6.591481

                 CHAMBER   THROAT
 Pinf/P            1.0000   1.7820
 P, BAR            25.579   14.354
 T, K             1442.66  1309.40
 RHO, KG/CU M    3.4262 0 2.1459 0
 H, KJ/KG        -0.00000  -408.12
 U, KJ/KG         -746.58 -1077.03
 G, KJ/KG        -17812.6 -16575.4
 S, KJ/(KG)(K)    12.3471  12.3471

 M, (1/n)          16.067   16.276
 MW, MOL WT        14.927   15.016
 (dLV/dLP)t      -1.02900 -1.03898
 (dLV/dLT)p        1.2659   1.4164
 Cp, KJ/(KG)(K)    3.6378   4.6700
 GAMMAs            1.2484   1.2202
 SON VEL,M/SEC      965.4    903.5
 MACH NUMBER        0.000    1.000

 TRANSPORT PROPERTIES (GASES ONLY)
   CONDUCTIVITY IN UNITS OF MILLIWATTS/(CM)(K)

 VISC,MILLIPOISE  0.72651  0.68098

  WITH EQUILIBRIUM REACTIONS

 Cp, KJ/(KG)(K)    3.7376   4.7344
 CONDUCTIVITY      6.5013   6.9240
 PRANDTL NUMBER    0.4177   0.4656

  WITH FROZEN REACTIONS

 Cp, KJ/(KG)(K)    2.2999   2.2646
 CONDUCTIVITY      5.1711   4.7350
 PRANDTL NUMBER    0.3231   0.3257

 PERFORMANCE PARAMETERS

 Ae/At                      1.0000
 CSTAR, M/SEC               1319.4
 CF                         0.6848
 Ivac, M/SEC                1643.8
 Isp, M/SEC                  903.5


 MASS FRACTIONS

 CH4              0.02065  0.02393
 *CO              0.52498  0.50302
 *CO2             0.00716  0.01536
 CH3CN            0.00001  0.00000
 C2H4             0.00002  0.00001
 HCN              0.00041  0.00013
 *H2              0.06059  0.05896
 H2O              0.01103  0.01844
 NH3              0.00029  0.00025
 *N2              0.31779  0.31796
 C(gr)            0.05705  0.06192

  * THERMODYNAMIC PROPERTIES FITTED TO 20000.K

 NOTE. WEIGHT FRACTION OF FUEL IN TOTAL FUELS AND OF OXIDANT IN TOTAL OXIDANTS










              THEORETICAL ROCKET PERFORMANCE ASSUMING EQUILIBRIUM

           COMPOSITION DURING EXPANSION FROM INFINITE AREA COMBUSTOR

 Pin =   392.0 PSIA
 CASE = _______________

             REACTANT                    WT FRACTION      ENERGY      TEMP
                                          (SEE NOTE)     KJ/KG-MOL      K  
 FUEL        C3H8O,2propanol              1.0000000         0.000      0.000
 OXIDANT     N2O                          1.0000000         0.000      0.000

 O/F=    1.00000  %FUEL= 50.000000  R,EQ.RATIO= 4.227617  PHI,EQ.RATIO= 6.591481

                 CHAMBER   THROAT
 Pinf/P            1.0000   1.7817
 P, BAR            27.027   15.169
 T, K             1445.69  1312.63
 RHO, KG/CU M    3.6164 0 2.2647 0
 H, KJ/KG         0.00000  -408.50
 U, KJ/KG         -747.36 -1078.30
 G, KJ/KG        -17808.9 -16578.3
 S, KJ/(KG)(K)    12.3186  12.3186

 M, (1/n)          16.084   16.294
 MW, MOL WT        14.947   15.036
 (dLV/dLP)t      -1.02980 -1.03978
 (dLV/dLT)p        1.2725   1.4235
 Cp, KJ/(KG)(K)    3.6675   4.7010
 GAMMAs            1.2476   1.2197
 SON VEL,M/SEC      965.6    903.9
 MACH NUMBER        0.000    1.000

 TRANSPORT PROPERTIES (GASES ONLY)
   CONDUCTIVITY IN UNITS OF MILLIWATTS/(CM)(K)

 VISC,MILLIPOISE  0.72704  0.68162

  WITH EQUILIBRIUM REACTIONS

 Cp, KJ/(KG)(K)    3.7685   4.7688
 CONDUCTIVITY      6.5304   6.9598
 PRANDTL NUMBER    0.4196   0.4670

  WITH FROZEN REACTIONS

 Cp, KJ/(KG)(K)    2.3008   2.2657
 CONDUCTIVITY      5.1680   4.7331
 PRANDTL NUMBER    0.3237   0.3263

 PERFORMANCE PARAMETERS

 Ae/At                      1.0000
 CSTAR, M/SEC               1320.3
 CF                         0.6846
 Ivac, M/SEC                1644.9
 Isp, M/SEC                  903.9


 MASS FRACTIONS

 CH4              0.02135  0.02462
 *CO              0.52427  0.50214
 *CO2             0.00733  0.01559
 CH3CN            0.00001  0.00000
 C2H4             0.00003  0.00001
 HCN              0.00042  0.00014
 *H2              0.06038  0.05874
 H2O              0.01134  0.01882
 NH3              0.00030  0.00026
 *N2              0.31777  0.31795
 C(gr)            0.05678  0.06171

  * THERMODYNAMIC PROPERTIES FITTED TO 20000.K

 NOTE. WEIGHT FRACTION OF FUEL IN TOTAL FUELS AND OF OXIDANT IN TOTAL OXIDANTS










              THEORETICAL ROCKET PERFORMANCE ASSUMING EQUILIBRIUM

           COMPOSITION DURING EXPANSION FROM INFINITE AREA COMBUSTOR

 Pin =   413.0 PSIA
 CASE = _______________

             REACTANT                    WT FRACTION      ENERGY      TEMP
                                          (SEE NOTE)     KJ/KG-MOL      K  
 FUEL        C3H8O,2propanol              1.0000000         0.000      0.000
 OXIDANT     N2O                          1.0000000         0.000      0.000

 O/F=    1.00000  %FUEL= 50.000000  R,EQ.RATIO= 4.227617  PHI,EQ.RATIO= 6.591481

                 CHAMBER   THROAT
 Pinf/P            1.0000   1.7815
 P, BAR            28.475   15.984
 T, K             1448.61  1315.73
 RHO, KG/CU M    3.8063 0 2.3834 0
 H, KJ/KG         0.00000  -408.86
 U, KJ/KG         -748.11 -1079.51
 G, KJ/KG        -17805.8 -16581.3
 S, KJ/(KG)(K)    12.2916  12.2916

 M, (1/n)          16.100   16.312
 MW, MOL WT        14.966   15.055
 (dLV/dLP)t      -1.03056 -1.04054
 (dLV/dLT)p        1.2788   1.4301
 Cp, KJ/(KG)(K)    3.6956   4.7300
 GAMMAs            1.2468   1.2193
 SON VEL,M/SEC      965.8    904.3
 MACH NUMBER        0.000    1.000

 TRANSPORT PROPERTIES (GASES ONLY)
   CONDUCTIVITY IN UNITS OF MILLIWATTS/(CM)(K)

 VISC,MILLIPOISE  0.72754  0.68223

  WITH EQUILIBRIUM REACTIONS

 Cp, KJ/(KG)(K)    3.7978   4.8009
 CONDUCTIVITY      6.5580   6.9935
 PRANDTL NUMBER    0.4213   0.4683

  WITH FROZEN REACTIONS

 Cp, KJ/(KG)(K)    2.3017   2.2667
 CONDUCTIVITY      5.1650   4.7313
 PRANDTL NUMBER    0.3242   0.3268

 PERFORMANCE PARAMETERS

 Ae/At                      1.0000
 CSTAR, M/SEC               1321.2
 CF                         0.6844
 Ivac, M/SEC                1645.9
 Isp, M/SEC                  904.3


 MASS FRACTIONS

 CH4              0.02202  0.02529
 *CO              0.52360  0.50130
 *CO2             0.00750  0.01581
 CH3CN            0.00001  0.00000
 C2H4             0.00003  0.00001
 C2H6             0.00001  0.00000
 HCN              0.00042  0.00014
 HNC              0.00001  0.00000
 *H2              0.06017  0.05853
 H2O              0.01164  0.01918
 NH3              0.00031  0.00027
 *N2              0.31776  0.31794
 C(gr)            0.05651  0.06151

  * THERMODYNAMIC PROPERTIES FITTED TO 20000.K

 NOTE. WEIGHT FRACTION OF FUEL IN TOTAL FUELS AND OF OXIDANT IN TOTAL OXIDANTS










              THEORETICAL ROCKET PERFORMANCE ASSUMING EQUILIBRIUM

           COMPOSITION DURING EXPANSION FROM INFINITE AREA COMBUSTOR

 Pin =   434.0 PSIA
 CASE = _______________

             REACTANT                    WT FRACTION      ENERGY      TEMP
                                          (SEE NOTE)     KJ/KG-MOL      K  
 FUEL        C3H8O,2propanol              1.0000000         0.000      0.000
 OXIDANT     N2O                          1.0000000         0.000      0.000

 O/F=    1.00000  %FUEL= 50.000000  R,EQ.RATIO= 4.227617  PHI,EQ.RATIO= 6.591481

                 CHAMBER   THROAT
 Pinf/P            1.0000   1.7813
 P, BAR            29.923   16.799
 T, K             1451.43  1318.70
 RHO, KG/CU M    3.9960 0 2.5019 0
 H, KJ/KG        -0.00000  -409.21
 U, KJ/KG         -748.82 -1080.66
 G, KJ/KG        -17803.3 -16584.5
 S, KJ/(KG)(K)    12.2660  12.2660

 M, (1/n)          16.116   16.329
 MW, MOL WT        14.985   15.073
 (dLV/dLP)t      -1.03130 -1.04126
 (dLV/dLT)p        1.2848   1.4364
 Cp, KJ/(KG)(K)    3.7221   4.7571
 GAMMAs            1.2461   1.2189
 SON VEL,M/SEC      966.0    904.7
 MACH NUMBER        0.000    1.000

 TRANSPORT PROPERTIES (GASES ONLY)
   CONDUCTIVITY IN UNITS OF MILLIWATTS/(CM)(K)

 VISC,MILLIPOISE  0.72803  0.68281

  WITH EQUILIBRIUM REACTIONS

 Cp, KJ/(KG)(K)    3.8254   4.8309
 CONDUCTIVITY      6.5841   7.0252
 PRANDTL NUMBER    0.4230   0.4695

  WITH FROZEN REACTIONS

 Cp, KJ/(KG)(K)    2.3026   2.2677
 CONDUCTIVITY      5.1620   4.7294
 PRANDTL NUMBER    0.3248   0.3274

 PERFORMANCE PARAMETERS

 Ae/At                      1.0000
 CSTAR, M/SEC               1322.1
 CF                         0.6843
 Ivac, M/SEC                1646.9
 Isp, M/SEC                  904.7


 MASS FRACTIONS

 CH4              0.02268  0.02594
 *CO              0.52295  0.50050
 *CO2             0.00766  0.01602
 CH3CN            0.00001  0.00000
 C2H4             0.00003  0.00001
 C2H6             0.00001  0.00000
 HCN              0.00043  0.00014
 HNC              0.00001  0.00000
 *H2              0.05997  0.05833
 H2O              0.01193  0.01953
 NH3              0.00033  0.00028
 *N2              0.31774  0.31793
 C(gr)            0.05625  0.06131

  * THERMODYNAMIC PROPERTIES FITTED TO 20000.K

 NOTE. WEIGHT FRACTION OF FUEL IN TOTAL FUELS AND OF OXIDANT IN TOTAL OXIDANTS










              THEORETICAL ROCKET PERFORMANCE ASSUMING EQUILIBRIUM

           COMPOSITION DURING EXPANSION FROM INFINITE AREA COMBUSTOR

 Pin =   455.0 PSIA
 CASE = _______________

             REACTANT                    WT FRACTION      ENERGY      TEMP
                                          (SEE NOTE)     KJ/KG-MOL      K  
 FUEL        C3H8O,2propanol              1.0000000         0.000      0.000
 OXIDANT     N2O                          1.0000000         0.000      0.000

 O/F=    1.00000  %FUEL= 50.000000  R,EQ.RATIO= 4.227617  PHI,EQ.RATIO= 6.591481

                 CHAMBER   THROAT
 Pinf/P            1.0000   1.7810
 P, BAR            31.371   17.614
 T, K             1454.16  1321.56
 RHO, KG/CU M    4.1855 0 2.6203 0
 H, KJ/KG        -0.00000  -409.55
 U, KJ/KG         -749.51 -1081.78
 G, KJ/KG        -17801.3 -16587.7
 S, KJ/(KG)(K)    12.2417  12.2417

 M, (1/n)          16.131   16.346
 MW, MOL WT        15.003   15.091
 (dLV/dLP)t      -1.03201 -1.04195
 (dLV/dLT)p        1.2905   1.4424
 Cp, KJ/(KG)(K)    3.7473   4.7825
 GAMMAs            1.2454   1.2185
 SON VEL,M/SEC      966.2    905.0
 MACH NUMBER        0.000    1.000

 TRANSPORT PROPERTIES (GASES ONLY)
   CONDUCTIVITY IN UNITS OF MILLIWATTS/(CM)(K)

 VISC,MILLIPOISE  0.72849  0.68337

  WITH EQUILIBRIUM REACTIONS

 Cp, KJ/(KG)(K)    3.8516   4.8590
 CONDUCTIVITY      6.6091   7.0553
 PRANDTL NUMBER    0.4245   0.4706

  WITH FROZEN REACTIONS

 Cp, KJ/(KG)(K)    2.3035   2.2686
 CONDUCTIVITY      5.1590   4.7275
 PRANDTL NUMBER    0.3253   0.3279

 PERFORMANCE PARAMETERS

 Ae/At                      1.0000
 CSTAR, M/SEC               1322.9
 CF                         0.6842
 Ivac, M/SEC                1647.8
 Isp, M/SEC                  905.0


 MASS FRACTIONS

 CH4              0.02332  0.02656
 *CO              0.52232  0.49974
 *CO2             0.00782  0.01622
 CH3CN            0.00001  0.00000
 C2H4             0.00003  0.00001
 C2H6             0.00001  0.00000
 HCN              0.00044  0.00015
 HNC              0.00001  0.00000
 *H2              0.05978  0.05813
 H2O              0.01220  0.01986
 NH3              0.00034  0.00029
 *N2              0.31773  0.31792
 C(gr)            0.05599  0.06111

  * THERMODYNAMIC PROPERTIES FITTED TO 20000.K

 NOTE. WEIGHT FRACTION OF FUEL IN TOTAL FUELS AND OF OXIDANT IN TOTAL OXIDANTS










              THEORETICAL ROCKET PERFORMANCE ASSUMING EQUILIBRIUM

           COMPOSITION DURING EXPANSION FROM INFINITE AREA COMBUSTOR

 Pin =   476.0 PSIA
 CASE = _______________

             REACTANT                    WT FRACTION      ENERGY      TEMP
                                          (SEE NOTE)     KJ/KG-MOL      K  
 FUEL        C3H8O,2propanol              1.0000000         0.000      0.000
 OXIDANT     N2O                          1.0000000         0.000      0.000

 O/F=    1.00000  %FUEL= 50.000000  R,EQ.RATIO= 4.227617  PHI,EQ.RATIO= 6.591481

                 CHAMBER   THROAT
 Pinf/P            1.0000   1.7808
 P, BAR            32.819   18.429
 T, K             1456.80  1324.32
 RHO, KG/CU M    4.3748 0 2.7385 0
 H, KJ/KG         0.00000  -409.88
 U, KJ/KG         -750.18 -1082.84
 G, KJ/KG        -17799.8 -16591.0
 S, KJ/(KG)(K)    12.2184  12.2184

 M, (1/n)          16.146   16.362
 MW, MOL WT        15.021   15.108
 (dLV/dLP)t      -1.03268 -1.04261
 (dLV/dLT)p        1.2960   1.4481
 Cp, KJ/(KG)(K)    3.7712   4.8065
 GAMMAs            1.2448   1.2181
 SON VEL,M/SEC      966.4    905.4
 MACH NUMBER        0.000    1.000

 TRANSPORT PROPERTIES (GASES ONLY)
   CONDUCTIVITY IN UNITS OF MILLIWATTS/(CM)(K)

 VISC,MILLIPOISE  0.72894  0.68390

  WITH EQUILIBRIUM REACTIONS

 Cp, KJ/(KG)(K)    3.8764   4.8855
 CONDUCTIVITY      6.6328   7.0837
 PRANDTL NUMBER    0.4260   0.4717

  WITH FROZEN REACTIONS

 Cp, KJ/(KG)(K)    2.3043   2.2695
 CONDUCTIVITY      5.1561   4.7256
 PRANDTL NUMBER    0.3258   0.3284

 PERFORMANCE PARAMETERS

 Ae/At                      1.0000
 CSTAR, M/SEC               1323.6
 CF                         0.6840
 Ivac, M/SEC                1648.7
 Isp, M/SEC                  905.4


 MASS FRACTIONS

 CH4              0.02394  0.02717
 *CO              0.52172  0.49900
 *CO2             0.00797  0.01641
 CH3CN            0.00001  0.00000
 C2H4             0.00003  0.00001
 C2H6             0.00001  0.00000
 HCN              0.00045  0.00015
 HNC              0.00001  0.00000
 *H2              0.05959  0.05794
 H2O              0.01247  0.02017
 NH3              0.00035  0.00030
 *N2              0.31772  0.31791
 C(gr)            0.05574  0.06092

  * THERMODYNAMIC PROPERTIES FITTED TO 20000.K

 NOTE. WEIGHT FRACTION OF FUEL IN TOTAL FUELS AND OF OXIDANT IN TOTAL OXIDANTS










              THEORETICAL ROCKET PERFORMANCE ASSUMING EQUILIBRIUM

           COMPOSITION DURING EXPANSION FROM INFINITE AREA COMBUSTOR

 Pin =   497.0 PSIA
 CASE = _______________

             REACTANT                    WT FRACTION      ENERGY      TEMP
                                          (SEE NOTE)     KJ/KG-MOL      K  
 FUEL        C3H8O,2propanol              1.0000000         0.000      0.000
 OXIDANT     N2O                          1.0000000         0.000      0.000

 O/F=    1.00000  %FUEL= 50.000000  R,EQ.RATIO= 4.227617  PHI,EQ.RATIO= 6.591481

                 CHAMBER   THROAT
 Pinf/P            1.0000   1.7806
 P, BAR            34.267   19.244
 T, K             1459.36  1326.98
 RHO, KG/CU M    4.5639 0 2.8566 0
 H, KJ/KG         0.00000  -410.20
 U, KJ/KG         -750.82 -1083.87
 G, KJ/KG        -17798.6 -16594.3
 S, KJ/(KG)(K)    12.1962  12.1962

 M, (1/n)          16.161   16.378
 MW, MOL WT        15.038   15.125
 (dLV/dLP)t      -1.03334 -1.04325
 (dLV/dLT)p        1.3013   1.4535
 Cp, KJ/(KG)(K)    3.7939   4.8290
 GAMMAs            1.2442   1.2178
 SON VEL,M/SEC      966.5    905.8
 MACH NUMBER        0.000    1.000

 TRANSPORT PROPERTIES (GASES ONLY)
   CONDUCTIVITY IN UNITS OF MILLIWATTS/(CM)(K)

 VISC,MILLIPOISE  0.72938  0.68441

  WITH EQUILIBRIUM REACTIONS

 Cp, KJ/(KG)(K)    3.9000   4.9104
 CONDUCTIVITY      6.6554   7.1107
 PRANDTL NUMBER    0.4274   0.4726

  WITH FROZEN REACTIONS

 Cp, KJ/(KG)(K)    2.3051   2.2704
 CONDUCTIVITY      5.1533   4.7237
 PRANDTL NUMBER    0.3263   0.3290

 PERFORMANCE PARAMETERS

 Ae/At                      1.0000
 CSTAR, M/SEC               1324.4
 CF                         0.6839
 Ivac, M/SEC                1649.5
 Isp, M/SEC                  905.8


 MASS FRACTIONS

 CH4              0.02454  0.02776
 *CO              0.52114  0.49830
 *CO2             0.00811  0.01659
 CH3CN            0.00001  0.00000
 C2H4             0.00003  0.00001
 C2H6             0.00001  0.00000
 HCN              0.00046  0.00015
 HNC              0.00001  0.00000
 HNCO             0.00001  0.00000
 *H2              0.05941  0.05776
 H2O              0.01272  0.02048
 NH3              0.00036  0.00031
 *N2              0.31770  0.31790
 C(gr)            0.05549  0.06073

  * THERMODYNAMIC PROPERTIES FITTED TO 20000.K

 NOTE. WEIGHT FRACTION OF FUEL IN TOTAL FUELS AND OF OXIDANT IN TOTAL OXIDANTS










              THEORETICAL ROCKET PERFORMANCE ASSUMING EQUILIBRIUM

           COMPOSITION DURING EXPANSION FROM INFINITE AREA COMBUSTOR

 Pin =   518.0 PSIA
 CASE = _______________

             REACTANT                    WT FRACTION      ENERGY      TEMP
                                          (SEE NOTE)     KJ/KG-MOL      K  
 FUEL        C3H8O,2propanol              1.0000000         0.000      0.000
 OXIDANT     N2O                          1.0000000         0.000      0.000

 O/F=    1.00000  %FUEL= 50.000000  R,EQ.RATIO= 4.227617  PHI,EQ.RATIO= 6.591481

                 CHAMBER   THROAT
 Pinf/P            1.0000   1.7805
 P, BAR            35.715   20.059
 T, K             1461.84  1329.55
 RHO, KG/CU M    4.7529 0 2.9746 0
 H, KJ/KG        -0.00000  -410.51
 U, KJ/KG         -751.44 -1084.86
 G, KJ/KG        -17797.8 -16597.7
 S, KJ/(KG)(K)    12.1749  12.1749

 M, (1/n)          16.175   16.393
 MW, MOL WT        15.055   15.142
 (dLV/dLP)t      -1.03397 -1.04386
 (dLV/dLT)p        1.3063   1.4586
 Cp, KJ/(KG)(K)    3.8156   4.8503
 GAMMAs            1.2437   1.2175
 SON VEL,M/SEC      966.7    906.1
 MACH NUMBER        0.000    1.000

 TRANSPORT PROPERTIES (GASES ONLY)
   CONDUCTIVITY IN UNITS OF MILLIWATTS/(CM)(K)

 VISC,MILLIPOISE  0.72980  0.68490

  WITH EQUILIBRIUM REACTIONS

 Cp, KJ/(KG)(K)    3.9225   4.9338
 CONDUCTIVITY      6.6771   7.1364
 PRANDTL NUMBER    0.4287   0.4735

  WITH FROZEN REACTIONS

 Cp, KJ/(KG)(K)    2.3059   2.2712
 CONDUCTIVITY      5.1504   4.7218
 PRANDTL NUMBER    0.3267   0.3294

 PERFORMANCE PARAMETERS

 Ae/At                      1.0000
 CSTAR, M/SEC               1325.1
 CF                         0.6838
 Ivac, M/SEC                1650.3
 Isp, M/SEC                  906.1


 MASS FRACTIONS

 CH4              0.02513  0.02833
 *CO              0.52057  0.49762
 *CO2             0.00825  0.01676
 CH3CN            0.00001  0.00000
 C2H4             0.00003  0.00001
 C2H6             0.00001  0.00001
 HCN              0.00046  0.00016
 HNC              0.00001  0.00000
 HNCO             0.00001  0.00000
 *H2              0.05923  0.05758
 H2O              0.01297  0.02077
 NH3              0.00037  0.00032
 *N2              0.31769  0.31789
 C(gr)            0.05525  0.06054

  * THERMODYNAMIC PROPERTIES FITTED TO 20000.K

 NOTE. WEIGHT FRACTION OF FUEL IN TOTAL FUELS AND OF OXIDANT IN TOTAL OXIDANTS










              THEORETICAL ROCKET PERFORMANCE ASSUMING EQUILIBRIUM

           COMPOSITION DURING EXPANSION FROM INFINITE AREA COMBUSTOR

 Pin =    14.0 PSIA
 CASE = _______________

             REACTANT                    WT FRACTION      ENERGY      TEMP
                                          (SEE NOTE)     KJ/KG-MOL      K  
 FUEL        C3H8O,2propanol              1.0000000         0.000      0.000
 OXIDANT     N2O                          1.0000000         0.000      0.000

 O/F=    1.25000  %FUEL= 44.444444  R,EQ.RATIO= 3.694470  PHI,EQ.RATIO= 5.273185

                 CHAMBER   THROAT
 Pinf/P            1.0000   1.8343
 P, BAR           0.96526  0.52623
 T, K             1422.78  1234.65
 RHO, KG/CU M    1.3132-1 8.2672-2
 H, KJ/KG         0.00000  -415.24
 U, KJ/KG         -735.03 -1051.77
 G, KJ/KG        -19676.2 -17489.7
 S, KJ/(KG)(K)    13.8294  13.8294

 M, (1/n)          16.094   16.127
 MW, MOL WT        15.558   15.574
 (dLV/dLP)t      -1.00143 -1.00346
 (dLV/dLT)p        1.0135   1.0413
 Cp, KJ/(KG)(K)    2.2189   2.3587
 GAMMAs            1.3119   1.3047
 SON VEL,M/SEC      982.0    911.3
 MACH NUMBER        0.000    1.000

 TRANSPORT PROPERTIES (GASES ONLY)
   CONDUCTIVITY IN UNITS OF MILLIWATTS/(CM)(K)

 VISC,MILLIPOISE  0.71346  0.65179

  WITH EQUILIBRIUM REACTIONS

 Cp, KJ/(KG)(K)    2.2221   2.3290
 CONDUCTIVITY      4.9182   4.5227
 PRANDTL NUMBER    0.3223   0.3356

  WITH FROZEN REACTIONS

 Cp, KJ/(KG)(K)    2.1386   2.0904
 CONDUCTIVITY      4.8404   4.3298
 PRANDTL NUMBER    0.3152   0.3147

 PERFORMANCE PARAMETERS

 Ae/At                      1.0000
 CSTAR, M/SEC               1281.2
 CF                         0.7113
 Ivac, M/SEC                1609.8
 Isp, M/SEC                  911.3


 MASS FRACTIONS

 CH4              0.00083  0.00144
 *CO              0.55945  0.55605
 *CO2             0.00037  0.00173
 HCN              0.00037  0.00007
 *H2              0.05935  0.05909
 H2O              0.00051  0.00158
 NH3              0.00001  0.00001
 *N2              0.35340  0.35356
 C(gr)            0.02570  0.02646

  * THERMODYNAMIC PROPERTIES FITTED TO 20000.K

 NOTE. WEIGHT FRACTION OF FUEL IN TOTAL FUELS AND OF OXIDANT IN TOTAL OXIDANTS










              THEORETICAL ROCKET PERFORMANCE ASSUMING EQUILIBRIUM

           COMPOSITION DURING EXPANSION FROM INFINITE AREA COMBUSTOR

 Pin =    35.0 PSIA
 CASE = _______________

             REACTANT                    WT FRACTION      ENERGY      TEMP
                                          (SEE NOTE)     KJ/KG-MOL      K  
 FUEL        C3H8O,2propanol              1.0000000         0.000      0.000
 OXIDANT     N2O                          1.0000000         0.000      0.000

 O/F=    1.25000  %FUEL= 44.444444  R,EQ.RATIO= 3.694470  PHI,EQ.RATIO= 5.273185

                 CHAMBER   THROAT
 Pinf/P            1.0000   1.8217
 P, BAR            2.4132   1.3247
 T, K             1429.15  1250.19
 RHO, KG/CU M    3.2749-1 2.0635-1
 H, KJ/KG        -0.00000  -412.58
 U, KJ/KG         -736.86 -1054.54
 G, KJ/KG        -19088.2 -17110.6
 S, KJ/(KG)(K)    13.3564  13.3564

 M, (1/n)          16.126   16.192
 MW, MOL WT        15.594   15.628
 (dLV/dLP)t      -1.00337 -1.00731
 (dLV/dLT)p        1.0316   1.0854
 Cp, KJ/(KG)(K)    2.3134   2.6382
 GAMMAs            1.3052   1.2854
 SON VEL,M/SEC      980.7    908.4
 MACH NUMBER        0.000    1.000

 TRANSPORT PROPERTIES (GASES ONLY)
   CONDUCTIVITY IN UNITS OF MILLIWATTS/(CM)(K)

 VISC,MILLIPOISE  0.71477  0.65592

  WITH EQUILIBRIUM REACTIONS

 Cp, KJ/(KG)(K)    2.3197   2.5866
 CONDUCTIVITY      4.9997   4.7467
 PRANDTL NUMBER    0.3316   0.3574

  WITH FROZEN REACTIONS

 Cp, KJ/(KG)(K)    2.1404   2.0952
 CONDUCTIVITY      4.8384   4.3442
 PRANDTL NUMBER    0.3162   0.3163

 PERFORMANCE PARAMETERS

 Ae/At                      1.0000
 CSTAR, M/SEC               1287.4
 CF                         0.7056
 Ivac, M/SEC                1615.1
 Isp, M/SEC                  908.4


 MASS FRACTIONS

 CH4              0.00199  0.00320
 *CO              0.55773  0.55109
 *CO2             0.00087  0.00351
 HCN              0.00038  0.00008
 *H2              0.05898  0.05845
 H2O              0.00120  0.00332
 NH3              0.00003  0.00003
 *N2              0.35338  0.35353
 C(gr)            0.02542  0.02679

  * THERMODYNAMIC PROPERTIES FITTED TO 20000.K

 NOTE. WEIGHT FRACTION OF FUEL IN TOTAL FUELS AND OF OXIDANT IN TOTAL OXIDANTS










              THEORETICAL ROCKET PERFORMANCE ASSUMING EQUILIBRIUM

           COMPOSITION DURING EXPANSION FROM INFINITE AREA COMBUSTOR

 Pin =    56.0 PSIA
 CASE = _______________

             REACTANT                    WT FRACTION      ENERGY      TEMP
                                          (SEE NOTE)     KJ/KG-MOL      K  
 FUEL        C3H8O,2propanol              1.0000000         0.000      0.000
 OXIDANT     N2O                          1.0000000         0.000      0.000

 O/F=    1.25000  %FUEL= 44.444444  R,EQ.RATIO= 3.694470  PHI,EQ.RATIO= 5.273185

                 CHAMBER   THROAT
 Pinf/P            1.0000   1.8146
 P, BAR            3.8610   2.1278
 T, K             1434.92  1261.87
 RHO, KG/CU M    5.2283-1 3.2943-1
 H, KJ/KG        -0.00000  -411.52
 U, KJ/KG         -738.50 -1057.41
 G, KJ/KG        -18817.9 -16960.0
 S, KJ/(KG)(K)    13.1143  13.1143

 M, (1/n)          16.155   16.244
 MW, MOL WT        15.627   15.673
 (dLV/dLP)t      -1.00512 -1.01030
 (dLV/dLT)p        1.0477   1.1186
 Cp, KJ/(KG)(K)    2.3964   2.8397
 GAMMAs            1.2998   1.2743
 SON VEL,M/SEC      979.7    907.2
 MACH NUMBER        0.000    1.000

 TRANSPORT PROPERTIES (GASES ONLY)
   CONDUCTIVITY IN UNITS OF MILLIWATTS/(CM)(K)

 VISC,MILLIPOISE  0.71594  0.65892

  WITH EQUILIBRIUM REACTIONS

 Cp, KJ/(KG)(K)    2.4049   2.7784
 CONDUCTIVITY      5.0723   4.9154
 PRANDTL NUMBER    0.3394   0.3724

  WITH FROZEN REACTIONS

 Cp, KJ/(KG)(K)    2.1421   2.0987
 CONDUCTIVITY      4.8362   4.3526
 PRANDTL NUMBER    0.3171   0.3177

 PERFORMANCE PARAMETERS

 Ae/At                      1.0000
 CSTAR, M/SEC               1291.9
 CF                         0.7022
 Ivac, M/SEC                1619.2
 Isp, M/SEC                  907.2


 MASS FRACTIONS

 CH4              0.00306  0.00467
 *CO              0.55620  0.54735
 *CO2             0.00131  0.00480
 HCN              0.00040  0.00009
 *H2              0.05864  0.05793
 H2O              0.00182  0.00466
 NH3              0.00005  0.00005
 *N2              0.35336  0.35352
 C(gr)            0.02515  0.02693

  * THERMODYNAMIC PROPERTIES FITTED TO 20000.K

 NOTE. WEIGHT FRACTION OF FUEL IN TOTAL FUELS AND OF OXIDANT IN TOTAL OXIDANTS










              THEORETICAL ROCKET PERFORMANCE ASSUMING EQUILIBRIUM

           COMPOSITION DURING EXPANSION FROM INFINITE AREA COMBUSTOR

 Pin =    77.0 PSIA
 CASE = _______________

             REACTANT                    WT FRACTION      ENERGY      TEMP
                                          (SEE NOTE)     KJ/KG-MOL      K  
 FUEL        C3H8O,2propanol              1.0000000         0.000      0.000
 OXIDANT     N2O                          1.0000000         0.000      0.000

 O/F=    1.25000  %FUEL= 44.444444  R,EQ.RATIO= 3.694470  PHI,EQ.RATIO= 5.273185

                 CHAMBER   THROAT
 Pinf/P            1.0000   1.8100
 P, BAR            5.3089   2.9332
 T, K             1440.21  1271.38
 RHO, KG/CU M    7.1744-1 4.5195-1
 H, KJ/KG        -0.00000  -411.10
 U, KJ/KG         -739.98 -1060.11
 G, KJ/KG        -18651.5 -16876.2
 S, KJ/(KG)(K)    12.9505  12.9505

 M, (1/n)          16.182   16.288
 MW, MOL WT        15.657   15.713
 (dLV/dLP)t      -1.00671 -1.01277
 (dLV/dLT)p        1.0623   1.1453
 Cp, KJ/(KG)(K)    2.4702   2.9971
 GAMMAs            1.2953   1.2668
 SON VEL,M/SEC      979.0    906.7
 MACH NUMBER        0.000    1.000

 TRANSPORT PROPERTIES (GASES ONLY)
   CONDUCTIVITY IN UNITS OF MILLIWATTS/(CM)(K)

 VISC,MILLIPOISE  0.71700  0.66129

  WITH EQUILIBRIUM REACTIONS

 Cp, KJ/(KG)(K)    2.4806   2.9313
 CONDUCTIVITY      5.1374   5.0514
 PRANDTL NUMBER    0.3462   0.3837

  WITH FROZEN REACTIONS

 Cp, KJ/(KG)(K)    2.1436   2.1016
 CONDUCTIVITY      4.8340   4.3578
 PRANDTL NUMBER    0.3180   0.3189

 PERFORMANCE PARAMETERS

 Ae/At                      1.0000
 CSTAR, M/SEC               1295.5
 CF                         0.6999
 Ivac, M/SEC                1622.5
 Isp, M/SEC                  906.8


 MASS FRACTIONS

 CH4              0.00405  0.00596
 *CO              0.55482  0.54432
 *CO2             0.00171  0.00583
 HCN              0.00041  0.00010
 *H2              0.05832  0.05748
 H2O              0.00239  0.00577
 NH3              0.00006  0.00006
 *N2              0.35333  0.35350
 C(gr)            0.02488  0.02698

  * THERMODYNAMIC PROPERTIES FITTED TO 20000.K

 NOTE. WEIGHT FRACTION OF FUEL IN TOTAL FUELS AND OF OXIDANT IN TOTAL OXIDANTS










              THEORETICAL ROCKET PERFORMANCE ASSUMING EQUILIBRIUM

           COMPOSITION DURING EXPANSION FROM INFINITE AREA COMBUSTOR

 Pin =    98.0 PSIA
 CASE = _______________

             REACTANT                    WT FRACTION      ENERGY      TEMP
                                          (SEE NOTE)     KJ/KG-MOL      K  
 FUEL        C3H8O,2propanol              1.0000000         0.000      0.000
 OXIDANT     N2O                          1.0000000         0.000      0.000

 O/F=    1.25000  %FUEL= 44.444444  R,EQ.RATIO= 3.694470  PHI,EQ.RATIO= 5.273185

                 CHAMBER   THROAT
 Pinf/P            1.0000   1.8066
 P, BAR            6.7568   3.7400
 T, K             1445.11  1279.49
 RHO, KG/CU M    9.1143-1 5.7397-1
 H, KJ/KG        -0.00000  -411.00
 U, KJ/KG         -741.35 -1062.60
 G, KJ/KG        -18536.0 -16822.6
 S, KJ/(KG)(K)    12.8267  12.8267

 M, (1/n)          16.208   16.326
 MW, MOL WT        15.686   15.749
 (dLV/dLP)t      -1.00818 -1.01489
 (dLV/dLT)p        1.0755   1.1677
 Cp, KJ/(KG)(K)    2.5366   3.1258
 GAMMAs            1.2915   1.2615
 SON VEL,M/SEC      978.5    906.6
 MACH NUMBER        0.000    1.000

 TRANSPORT PROPERTIES (GASES ONLY)
   CONDUCTIVITY IN UNITS OF MILLIWATTS/(CM)(K)

 VISC,MILLIPOISE  0.71797  0.66326

  WITH EQUILIBRIUM REACTIONS

 Cp, KJ/(KG)(K)    2.5486   3.0581
 CONDUCTIVITY      5.1964   5.1655
 PRANDTL NUMBER    0.3521   0.3927

  WITH FROZEN REACTIONS

 Cp, KJ/(KG)(K)    2.1451   2.1041
 CONDUCTIVITY      4.8317   4.3613
 PRANDTL NUMBER    0.3187   0.3200

 PERFORMANCE PARAMETERS

 Ae/At                      1.0000
 CSTAR, M/SEC               1298.4
 CF                         0.6983
 Ivac, M/SEC                1625.3
 Isp, M/SEC                  906.6


 MASS FRACTIONS

 CH4              0.00498  0.00712
 *CO              0.55355  0.54176
 *CO2             0.00207  0.00667
 C2H4             0.00001  0.00000
 HCN              0.00043  0.00010
 HNC              0.00001  0.00000
 *H2              0.05803  0.05708
 H2O              0.00291  0.00672
 NH3              0.00008  0.00008
 *N2              0.35331  0.35348
 C(gr)            0.02462  0.02698

  * THERMODYNAMIC PROPERTIES FITTED TO 20000.K

 NOTE. WEIGHT FRACTION OF FUEL IN TOTAL FUELS AND OF OXIDANT IN TOTAL OXIDANTS










              THEORETICAL ROCKET PERFORMANCE ASSUMING EQUILIBRIUM

           COMPOSITION DURING EXPANSION FROM INFINITE AREA COMBUSTOR

 Pin =   119.0 PSIA
 CASE = _______________

             REACTANT                    WT FRACTION      ENERGY      TEMP
                                          (SEE NOTE)     KJ/KG-MOL      K  
 FUEL        C3H8O,2propanol              1.0000000         0.000      0.000
 OXIDANT     N2O                          1.0000000         0.000      0.000

 O/F=    1.25000  %FUEL= 44.444444  R,EQ.RATIO= 3.694470  PHI,EQ.RATIO= 5.273185

                 CHAMBER   THROAT
 Pinf/P            1.0000   1.8041
 P, BAR            8.2047   4.5478
 T, K             1449.68  1286.59
 RHO, KG/CU M    1.1049 0 6.9556-1
 H, KJ/KG        -0.00000  -411.05
 U, KJ/KG         -742.61 -1064.89
 G, KJ/KG        -18450.3 -16785.7
 S, KJ/(KG)(K)    12.7272  12.7272

 M, (1/n)          16.231   16.361
 MW, MOL WT        15.714   15.782
 (dLV/dLP)t      -1.00953 -1.01676
 (dLV/dLT)p        1.0876   1.1871
 Cp, KJ/(KG)(K)    2.5968   3.2342
 GAMMAs            1.2883   1.2573
 SON VEL,M/SEC      978.1    906.7
 MACH NUMBER        0.000    1.000

 TRANSPORT PROPERTIES (GASES ONLY)
   CONDUCTIVITY IN UNITS OF MILLIWATTS/(CM)(K)

 VISC,MILLIPOISE  0.71887  0.66496

  WITH EQUILIBRIUM REACTIONS

 Cp, KJ/(KG)(K)    2.6103   3.1662
 CONDUCTIVITY      5.2502   5.2637
 PRANDTL NUMBER    0.3574   0.4000

  WITH FROZEN REACTIONS

 Cp, KJ/(KG)(K)    2.1464   2.1063
 CONDUCTIVITY      4.8293   4.3636
 PRANDTL NUMBER    0.3195   0.3210

 PERFORMANCE PARAMETERS

 Ae/At                      1.0000
 CSTAR, M/SEC               1301.0
 CF                         0.6969
 Ivac, M/SEC                1627.8
 Isp, M/SEC                  906.7


 MASS FRACTIONS

 CH4              0.00586  0.00817
 *CO              0.55238  0.53955
 *CO2             0.00240  0.00739
 C2H4             0.00001  0.00000
 HCN              0.00044  0.00011
 HNC              0.00001  0.00000
 *H2              0.05775  0.05672
 H2O              0.00340  0.00756
 NH3              0.00009  0.00009
 *N2              0.35329  0.35347
 C(gr)            0.02437  0.02693

  * THERMODYNAMIC PROPERTIES FITTED TO 20000.K

 NOTE. WEIGHT FRACTION OF FUEL IN TOTAL FUELS AND OF OXIDANT IN TOTAL OXIDANTS










              THEORETICAL ROCKET PERFORMANCE ASSUMING EQUILIBRIUM

           COMPOSITION DURING EXPANSION FROM INFINITE AREA COMBUSTOR

 Pin =   140.0 PSIA
 CASE = _______________

             REACTANT                    WT FRACTION      ENERGY      TEMP
                                          (SEE NOTE)     KJ/KG-MOL      K  
 FUEL        C3H8O,2propanol              1.0000000         0.000      0.000
 OXIDANT     N2O                          1.0000000         0.000      0.000

 O/F=    1.25000  %FUEL= 44.444444  R,EQ.RATIO= 3.694470  PHI,EQ.RATIO= 5.273185

                 CHAMBER   THROAT
 Pinf/P            1.0000   1.8021
 P, BAR            9.6526   5.3563
 T, K             1453.96  1292.93
 RHO, KG/CU M    1.2978 0 8.1676-1
 H, KJ/KG        -0.00000  -411.21
 U, KJ/KG         -743.78 -1067.01
 G, KJ/KG        -18383.9 -16758.9
 S, KJ/(KG)(K)    12.6440  12.6440

 M, (1/n)          16.254   16.392
 MW, MOL WT        15.740   15.812
 (dLV/dLP)t      -1.01079 -1.01842
 (dLV/dLT)p        1.0987   1.2041
 Cp, KJ/(KG)(K)    2.6519   3.3276
 GAMMAs            1.2855   1.2540
 SON VEL,M/SEC      977.8    906.9
 MACH NUMBER        0.000    1.000

 TRANSPORT PROPERTIES (GASES ONLY)
   CONDUCTIVITY IN UNITS OF MILLIWATTS/(CM)(K)

 VISC,MILLIPOISE  0.71970  0.66645

  WITH EQUILIBRIUM REACTIONS

 Cp, KJ/(KG)(K)    2.6665   3.2601
 CONDUCTIVITY      5.2996   5.3499
 PRANDTL NUMBER    0.3621   0.4061

  WITH FROZEN REACTIONS

 Cp, KJ/(KG)(K)    2.1477   2.1082
 CONDUCTIVITY      4.8269   4.3652
 PRANDTL NUMBER    0.3202   0.3219

 PERFORMANCE PARAMETERS

 Ae/At                      1.0000
 CSTAR, M/SEC               1303.2
 CF                         0.6959
 Ivac, M/SEC                1630.0
 Isp, M/SEC                  906.9


 MASS FRACTIONS

 CH4              0.00669  0.00914
 *CO              0.55129  0.53759
 *CO2             0.00271  0.00802
 C2H4             0.00001  0.00000
 HCN              0.00046  0.00012
 HNC              0.00001  0.00000
 *H2              0.05749  0.05639
 H2O              0.00384  0.00830
 NH3              0.00010  0.00010
 *N2              0.35328  0.35346
 C(gr)            0.02412  0.02687

  * THERMODYNAMIC PROPERTIES FITTED TO 20000.K

 NOTE. WEIGHT FRACTION OF FUEL IN TOTAL FUELS AND OF OXIDANT IN TOTAL OXIDANTS










              THEORETICAL ROCKET PERFORMANCE ASSUMING EQUILIBRIUM

           COMPOSITION DURING EXPANSION FROM INFINITE AREA COMBUSTOR

 Pin =   161.0 PSIA
 CASE = _______________

             REACTANT                    WT FRACTION      ENERGY      TEMP
                                          (SEE NOTE)     KJ/KG-MOL      K  
 FUEL        C3H8O,2propanol              1.0000000         0.000      0.000
 OXIDANT     N2O                          1.0000000         0.000      0.000

 O/F=    1.25000  %FUEL= 44.444444  R,EQ.RATIO= 3.694470  PHI,EQ.RATIO= 5.273185

                 CHAMBER   THROAT
 Pinf/P            1.0000   1.8005
 P, BAR            11.101   6.1653
 T, K             1458.00  1298.67
 RHO, KG/CU M    1.4903 0 9.3761-1
 H, KJ/KG        -0.00000  -411.42
 U, KJ/KG         -744.87 -1068.97
 G, KJ/KG        -18330.7 -16738.9
 S, KJ/(KG)(K)    12.5725  12.5725

 M, (1/n)          16.275   16.421
 MW, MOL WT        15.765   15.841
 (dLV/dLP)t      -1.01196 -1.01992
 (dLV/dLT)p        1.1091   1.2193
 Cp, KJ/(KG)(K)    2.7025   3.4094
 GAMMAs            1.2830   1.2513
 SON VEL,M/SEC      977.6    907.1
 MACH NUMBER        0.000    1.000

 TRANSPORT PROPERTIES (GASES ONLY)
   CONDUCTIVITY IN UNITS OF MILLIWATTS/(CM)(K)

 VISC,MILLIPOISE  0.72048  0.66779

  WITH EQUILIBRIUM REACTIONS

 Cp, KJ/(KG)(K)    2.7183   3.3428
 CONDUCTIVITY      5.3452   5.4266
 PRANDTL NUMBER    0.3664   0.4114

  WITH FROZEN REACTIONS

 Cp, KJ/(KG)(K)    2.1489   2.1100
 CONDUCTIVITY      4.8245   4.3661
 PRANDTL NUMBER    0.3209   0.3227

 PERFORMANCE PARAMETERS

 Ae/At                      1.0000
 CSTAR, M/SEC               1305.2
 CF                         0.6950
 Ivac, M/SEC                1632.0
 Isp, M/SEC                  907.1


 MASS FRACTIONS

 CH4              0.00748  0.01005
 *CO              0.55027  0.53584
 *CO2             0.00299  0.00858
 C2H4             0.00001  0.00000
 HCN              0.00047  0.00012
 HNC              0.00001  0.00000
 *H2              0.05724  0.05608
 H2O              0.00427  0.00898
 NH3              0.00012  0.00011
 *N2              0.35326  0.35344
 C(gr)            0.02388  0.02679

  * THERMODYNAMIC PROPERTIES FITTED TO 20000.K

 NOTE. WEIGHT FRACTION OF FUEL IN TOTAL FUELS AND OF OXIDANT IN TOTAL OXIDANTS










              THEORETICAL ROCKET PERFORMANCE ASSUMING EQUILIBRIUM

           COMPOSITION DURING EXPANSION FROM INFINITE AREA COMBUSTOR

 Pin =   182.0 PSIA
 CASE = _______________

             REACTANT                    WT FRACTION      ENERGY      TEMP
                                          (SEE NOTE)     KJ/KG-MOL      K  
 FUEL        C3H8O,2propanol              1.0000000         0.000      0.000
 OXIDANT     N2O                          1.0000000         0.000      0.000

 O/F=    1.25000  %FUEL= 44.444444  R,EQ.RATIO= 3.694470  PHI,EQ.RATIO= 5.273185

                 CHAMBER   THROAT
 Pinf/P            1.0000   1.7991
 P, BAR            12.548   6.9747
 T, K             1461.82  1303.92
 RHO, KG/CU M    1.6823 0 1.0582 0
 H, KJ/KG         0.00000  -411.66
 U, KJ/KG         -745.90 -1070.81
 G, KJ/KG        -18287.2 -16723.6
 S, KJ/(KG)(K)    12.5099  12.5099

 M, (1/n)          16.295   16.448
 MW, MOL WT        15.788   15.868
 (dLV/dLP)t      -1.01307 -1.02130
 (dLV/dLT)p        1.1188   1.2330
 Cp, KJ/(KG)(K)    2.7492   3.4820
 GAMMAs            1.2808   1.2491
 SON VEL,M/SEC      977.4    907.4
 MACH NUMBER        0.000    1.000

 TRANSPORT PROPERTIES (GASES ONLY)
   CONDUCTIVITY IN UNITS OF MILLIWATTS/(CM)(K)

 VISC,MILLIPOISE  0.72121  0.66899

  WITH EQUILIBRIUM REACTIONS

 Cp, KJ/(KG)(K)    2.7661   3.4166
 CONDUCTIVITY      5.3877   5.4956
 PRANDTL NUMBER    0.3703   0.4159

  WITH FROZEN REACTIONS

 Cp, KJ/(KG)(K)    2.1500   2.1116
 CONDUCTIVITY      4.8221   4.3667
 PRANDTL NUMBER    0.3216   0.3235

 PERFORMANCE PARAMETERS

 Ae/At                      1.0000
 CSTAR, M/SEC               1306.9
 CF                         0.6943
 Ivac, M/SEC                1633.8
 Isp, M/SEC                  907.4


 MASS FRACTIONS

 CH4              0.00824  0.01090
 *CO              0.54932  0.53425
 *CO2             0.00325  0.00907
 C2H4             0.00001  0.00000
 HCN              0.00048  0.00013
 HNC              0.00001  0.00000
 *H2              0.05700  0.05580
 H2O              0.00466  0.00959
 NH3              0.00013  0.00012
 *N2              0.35324  0.35343
 C(gr)            0.02365  0.02670

  * THERMODYNAMIC PROPERTIES FITTED TO 20000.K

 NOTE. WEIGHT FRACTION OF FUEL IN TOTAL FUELS AND OF OXIDANT IN TOTAL OXIDANTS










              THEORETICAL ROCKET PERFORMANCE ASSUMING EQUILIBRIUM

           COMPOSITION DURING EXPANSION FROM INFINITE AREA COMBUSTOR

 Pin =   203.0 PSIA
 CASE = _______________

             REACTANT                    WT FRACTION      ENERGY      TEMP
                                          (SEE NOTE)     KJ/KG-MOL      K  
 FUEL        C3H8O,2propanol              1.0000000         0.000      0.000
 OXIDANT     N2O                          1.0000000         0.000      0.000

 O/F=    1.25000  %FUEL= 44.444444  R,EQ.RATIO= 3.694470  PHI,EQ.RATIO= 5.273185

                 CHAMBER   THROAT
 Pinf/P            1.0000   1.7980
 P, BAR            13.996   7.7845
 T, K             1465.45  1308.78
 RHO, KG/CU M    1.8740 0 1.1784 0
 H, KJ/KG         0.00000  -411.93
 U, KJ/KG         -746.87 -1072.52
 G, KJ/KG        -18251.0 -16711.8
 S, KJ/(KG)(K)    12.4542  12.4542

 M, (1/n)          16.314   16.473
 MW, MOL WT        15.811   15.893
 (dLV/dLP)t      -1.01411 -1.02256
[...]

  WITH EQUILIBRIUM REACTIONS

 Cp, KJ/(KG)(K)    3.3207   3.0368
 CONDUCTIVITY      6.3009   5.3568
 PRANDTL NUMBER    0.5067   0.5219

  WITH FROZEN REACTIONS

 Cp, KJ/(KG)(K)    1.5997   1.5917
 CONDUCTIVITY      2.3328   2.2043
 PRANDTL NUMBER    0.6593   0.6648

 PERFORMANCE PARAMETERS

 Ae/At                      1.0000
 CSTAR, M/SEC               1460.4
 CF                         0.6607
 Ivac, M/SEC                1803.4
 Isp, M/SEC                  965.0


 MASS FRACTIONS

 *CO              0.03519  0.02485
 *CO2             0.21263  0.22888
 *H               0.00007  0.00004
 HO2              0.00003  0.00002
 *H2              0.00054  0.00039
 H2O              0.13459  0.13787
 *NO              0.01484  0.01108
 NO2              0.00003  0.00002
 *N2              0.55192  0.55368
 N2O              0.00001  0.00000
 *O               0.00168  0.00105
 *OH              0.01153  0.00848
 *O2              0.03692  0.03363

  * THERMODYNAMIC PROPERTIES FITTED TO 20000.K

 NOTE. WEIGHT FRACTION OF FUEL IN TOTAL FUELS AND OF OXIDANT IN TOTAL OXIDANTS










              THEORETICAL ROCKET PERFORMANCE ASSUMING EQUILIBRIUM

           COMPOSITION DURING EXPANSION FROM INFINITE AREA COMBUSTOR

 Pin =   371.0 PSIA
 CASE = _______________

             REACTANT                    WT FRACTION      ENERGY      TEMP
                                          (SEE NOTE)     KJ/KG-MOL      K  
 FUEL        C3H8O,2propanol              1.0000000         0.000      0.000
 OXIDANT     N2O                          1.0000000         0.000      0.000

 O/F=    7.20000  %FUEL= 12.195122  R,EQ.RATIO= 0.923287  PHI,EQ.RATIO= 0.915484

                 CHAMBER   THROAT
 Pinf/P            1.0000   1.7421
 P, BAR            25.579   14.683
 T, K             2905.38  2726.44
 RHO, KG/CU M    2.9392 0 1.8134 0
 H, KJ/KG         0.00000  -466.12
 U, KJ/KG         -870.29 -1275.82
 G, KJ/KG        -27531.1 -26301.5
 S, KJ/(KG)(K)     9.4759   9.4759

 M, (1/n)          27.757   27.997
 MW, MOL WT        27.757   27.997
 (dLV/dLP)t      -1.01051 -1.00777
 (dLV/dLT)p        1.2398   1.1896
 Cp, KJ/(KG)(K)    3.3014   3.0186
 GAMMAs            1.1480   1.1513
 SON VEL,M/SEC      999.6    965.5
 MACH NUMBER        0.000    1.000

 TRANSPORT PROPERTIES (GASES ONLY)
   CONDUCTIVITY IN UNITS OF MILLIWATTS/(CM)(K)

 VISC,MILLIPOISE  0.96226  0.92130

  WITH EQUILIBRIUM REACTIONS

 Cp, KJ/(KG)(K)    3.3014   3.0186
 CONDUCTIVITY      6.2512   5.3136
 PRANDTL NUMBER    0.5082   0.5234

  WITH FROZEN REACTIONS

 Cp, KJ/(KG)(K)    1.6000   1.5919
 CONDUCTIVITY      2.3344   2.2055
 PRANDTL NUMBER    0.6595   0.6650

 PERFORMANCE PARAMETERS

 Ae/At                      1.0000
 CSTAR, M/SEC               1460.9
 CF                         0.6609
 Ivac, M/SEC                1804.1
 Isp, M/SEC                  965.5


 MASS FRACTIONS

 *CO              0.03485  0.02455
 *CO2             0.21316  0.22935
 *H               0.00007  0.00004
 HO2              0.00003  0.00002
 *H2              0.00054  0.00038
 H2O              0.13470  0.13797
 *NO              0.01487  0.01110
 NO2              0.00003  0.00002
 *N2              0.55191  0.55367
 N2O              0.00001  0.00000
 *O               0.00165  0.00103
 *OH              0.01145  0.00841
 *O2              0.03672  0.03345

  * THERMODYNAMIC PROPERTIES FITTED TO 20000.K

 NOTE. WEIGHT FRACTION OF FUEL IN TOTAL FUELS AND OF OXIDANT IN TOTAL OXIDANTS










              THEORETICAL ROCKET PERFORMANCE ASSUMING EQUILIBRIUM

           COMPOSITION DURING EXPANSION FROM INFINITE AREA COMBUSTOR

 Pin =   392.0 PSIA
 CASE = _______________

             REACTANT                    WT FRACTION      ENERGY      TEMP
                                          (SEE NOTE)     KJ/KG-MOL      K  
 FUEL        C3H8O,2propanol              1.0000000         0.000      0.000
 OXIDANT     N2O                          1.0000000         0.000      0.000

 O/F=    7.20000  %FUEL= 12.195122  R,EQ.RATIO= 0.923287  PHI,EQ.RATIO= 0.915484

                 CHAMBER   THROAT
 Pinf/P            1.0000   1.7424
 P, BAR            27.027   15.512
 T, K             2908.86  2729.05
 RHO, KG/CU M    3.1028 0 1.9144 0
 H, KJ/KG         0.00000  -466.62
 U, KJ/KG         -871.07 -1276.90
 G, KJ/KG        -27516.0 -26281.8
 S, KJ/(KG)(K)     9.4594   9.4594

 M, (1/n)          27.765   28.004
 MW, MOL WT        27.765   28.004
 (dLV/dLP)t      -1.01042 -1.00769
 (dLV/dLT)p        1.2374   1.1874
 Cp, KJ/(KG)(K)    3.2832   3.0015
 GAMMAs            1.1484   1.1518
 SON VEL,M/SEC     1000.2    966.1
 MACH NUMBER        0.000    1.000

 TRANSPORT PROPERTIES (GASES ONLY)
   CONDUCTIVITY IN UNITS OF MILLIWATTS/(CM)(K)

 VISC,MILLIPOISE  0.96301  0.92188

  WITH EQUILIBRIUM REACTIONS

 Cp, KJ/(KG)(K)    3.2832   3.0015
 CONDUCTIVITY      6.2048   5.2732
 PRANDTL NUMBER    0.5096   0.5247

  WITH FROZEN REACTIONS

 Cp, KJ/(KG)(K)    1.6002   1.5921
 CONDUCTIVITY      2.3359   2.2067
 PRANDTL NUMBER    0.6597   0.6651

 PERFORMANCE PARAMETERS

 Ae/At                      1.0000
 CSTAR, M/SEC               1461.4
 CF                         0.6610
 Ivac, M/SEC                1804.8
 Isp, M/SEC                  966.0


 MASS FRACTIONS

 *CO              0.03454  0.02427
 *CO2             0.21366  0.22980
 *H               0.00007  0.00004
 HO2              0.00003  0.00002
 *H2              0.00053  0.00038
 H2O              0.13482  0.13806
 *NO              0.01490  0.01111
 NO2              0.00003  0.00002
 *N2              0.55189  0.55367
 N2O              0.00001  0.00000
 *O               0.00162  0.00101
 *OH              0.01137  0.00834
 *O2              0.03652  0.03328

  * THERMODYNAMIC PROPERTIES FITTED TO 20000.K

 NOTE. WEIGHT FRACTION OF FUEL IN TOTAL FUELS AND OF OXIDANT IN TOTAL OXIDANTS










              THEORETICAL ROCKET PERFORMANCE ASSUMING EQUILIBRIUM

           COMPOSITION DURING EXPANSION FROM INFINITE AREA COMBUSTOR

 Pin =   413.0 PSIA
 CASE = _______________

             REACTANT                    WT FRACTION      ENERGY      TEMP
                                          (SEE NOTE)     KJ/KG-MOL      K  
 FUEL        C3H8O,2propanol              1.0000000         0.000      0.000
 OXIDANT     N2O                          1.0000000         0.000      0.000

 O/F=    7.20000  %FUEL= 12.195122  R,EQ.RATIO= 0.923287  PHI,EQ.RATIO= 0.915484

                 CHAMBER   THROAT
 Pinf/P            1.0000   1.7426
 P, BAR            28.475   16.341
 T, K             2912.14  2731.52
 RHO, KG/CU M    3.2662 0 2.0153 0
 H, KJ/KG         0.00000  -467.10
 U, KJ/KG         -871.82 -1277.93
 G, KJ/KG        -27501.6 -26262.9
 S, KJ/(KG)(K)     9.4438   9.4438

 M, (1/n)          27.773   28.010
 MW, MOL WT        27.773   28.010
 (dLV/dLP)t      -1.01033 -1.00761
 (dLV/dLT)p        1.2351   1.1853
 Cp, KJ/(KG)(K)    3.2661   2.9854
 GAMMAs            1.1488   1.1522
 SON VEL,M/SEC     1000.8    966.5
 MACH NUMBER        0.000    1.000

 TRANSPORT PROPERTIES (GASES ONLY)
   CONDUCTIVITY IN UNITS OF MILLIWATTS/(CM)(K)

 VISC,MILLIPOISE  0.96372  0.92243

  WITH EQUILIBRIUM REACTIONS

 Cp, KJ/(KG)(K)    3.2661   2.9854
 CONDUCTIVITY      6.1612   5.2353
 PRANDTL NUMBER    0.5109   0.5260

  WITH FROZEN REACTIONS

 Cp, KJ/(KG)(K)    1.6004   1.5923
 CONDUCTIVITY      2.3373   2.2078
 PRANDTL NUMBER    0.6599   0.6653

 PERFORMANCE PARAMETERS

 Ae/At                      1.0000
 CSTAR, M/SEC               1461.9
 CF                         0.6612
 Ivac, M/SEC                1805.4
 Isp, M/SEC                  966.5


 MASS FRACTIONS

 *CO              0.03423  0.02400
 *CO2             0.21413  0.23021
 *H               0.00007  0.00004
 HO2              0.00004  0.00002
 *H2              0.00053  0.00037
 H2O              0.13492  0.13815
 *NO              0.01492  0.01113
 NO2              0.00003  0.00002
 *N2              0.55188  0.55366
 N2O              0.00001  0.00000
 *O               0.00159  0.00099
 *OH              0.01130  0.00828
 *O2              0.03634  0.03312

  * THERMODYNAMIC PROPERTIES FITTED TO 20000.K

 NOTE. WEIGHT FRACTION OF FUEL IN TOTAL FUELS AND OF OXIDANT IN TOTAL OXIDANTS










              THEORETICAL ROCKET PERFORMANCE ASSUMING EQUILIBRIUM

           COMPOSITION DURING EXPANSION FROM INFINITE AREA COMBUSTOR

 Pin =   434.0 PSIA
 CASE = _______________

             REACTANT                    WT FRACTION      ENERGY      TEMP
                                          (SEE NOTE)     KJ/KG-MOL      K  
 FUEL        C3H8O,2propanol              1.0000000         0.000      0.000
 OXIDANT     N2O                          1.0000000         0.000      0.000

 O/F=    7.20000  %FUEL= 12.195122  R,EQ.RATIO= 0.923287  PHI,EQ.RATIO= 0.915484

                 CHAMBER   THROAT
 Pinf/P            1.0000   1.7428
 P, BAR            29.923   17.169
 T, K             2915.25  2733.85
 RHO, KG/CU M    3.4295 0 2.1161 0
 H, KJ/KG         0.00000  -467.56
 U, KJ/KG         -872.52 -1278.90
 G, KJ/KG        -27487.6 -26244.8
 S, KJ/(KG)(K)     9.4289   9.4289

 M, (1/n)          27.780   28.016
 MW, MOL WT        27.780   28.016
 (dLV/dLP)t      -1.01024 -1.00753
 (dLV/dLT)p        1.2330   1.1833
 Cp, KJ/(KG)(K)    3.2500   2.9703
 GAMMAs            1.1491   1.1526
 SON VEL,M/SEC     1001.3    967.0
 MACH NUMBER        0.000    1.000

 TRANSPORT PROPERTIES (GASES ONLY)
   CONDUCTIVITY IN UNITS OF MILLIWATTS/(CM)(K)

 VISC,MILLIPOISE  0.96440  0.92294

  WITH EQUILIBRIUM REACTIONS

 Cp, KJ/(KG)(K)    3.2500   2.9703
 CONDUCTIVITY      6.1202   5.1997
 PRANDTL NUMBER    0.5121   0.5272

  WITH FROZEN REACTIONS

 Cp, KJ/(KG)(K)    1.6006   1.5925
 CONDUCTIVITY      2.3387   2.2088
 PRANDTL NUMBER    0.6601   0.6654

 PERFORMANCE PARAMETERS

 Ae/At                      1.0000
 CSTAR, M/SEC               1462.3
 CF                         0.6613
 Ivac, M/SEC                1806.0
 Isp, M/SEC                  967.0


 MASS FRACTIONS

 *CO              0.03395  0.02375
 *CO2             0.21458  0.23061
 *H               0.00007  0.00004
 HO2              0.00004  0.00002
 *H2              0.00052  0.00037
 H2O              0.13502  0.13823
 *NO              0.01495  0.01114
 NO2              0.00003  0.00002
 *N2              0.55187  0.55365
 N2O              0.00001  0.00000
 *O               0.00157  0.00097
 *OH              0.01123  0.00822
 *O2              0.03617  0.03297

  * THERMODYNAMIC PROPERTIES FITTED TO 20000.K

 NOTE. WEIGHT FRACTION OF FUEL IN TOTAL FUELS AND OF OXIDANT IN TOTAL OXIDANTS










              THEORETICAL ROCKET PERFORMANCE ASSUMING EQUILIBRIUM

           COMPOSITION DURING EXPANSION FROM INFINITE AREA COMBUSTOR

 Pin =   455.0 PSIA
 CASE = _______________

             REACTANT                    WT FRACTION      ENERGY      TEMP
                                          (SEE NOTE)     KJ/KG-MOL      K  
 FUEL        C3H8O,2propanol              1.0000000         0.000      0.000
 OXIDANT     N2O                          1.0000000         0.000      0.000

 O/F=    7.20000  %FUEL= 12.195122  R,EQ.RATIO= 0.923287  PHI,EQ.RATIO= 0.915484

                 CHAMBER   THROAT
 Pinf/P            1.0000   1.7431
 P, BAR            31.371   17.997
 T, K             2918.20  2736.06
 RHO, KG/CU M    3.5927 0 2.2169 0
 H, KJ/KG         0.00000  -467.99
 U, KJ/KG         -873.19 -1279.82
 G, KJ/KG        -27474.2 -26227.4
 S, KJ/(KG)(K)     9.4148   9.4148

 M, (1/n)          27.787   28.022
 MW, MOL WT        27.787   28.022
 (dLV/dLP)t      -1.01016 -1.00746
 (dLV/dLT)p        1.2309   1.1815
 Cp, KJ/(KG)(K)    3.2347   2.9559
 GAMMAs            1.1494   1.1529
 SON VEL,M/SEC     1001.8    967.5
 MACH NUMBER        0.000    1.000

 TRANSPORT PROPERTIES (GASES ONLY)
   CONDUCTIVITY IN UNITS OF MILLIWATTS/(CM)(K)

 VISC,MILLIPOISE  0.96504  0.92343

  WITH EQUILIBRIUM REACTIONS

 Cp, KJ/(KG)(K)    3.2347   2.9559
 CONDUCTIVITY      6.0815   5.1660
 PRANDTL NUMBER    0.5133   0.5284

  WITH FROZEN REACTIONS

 Cp, KJ/(KG)(K)    1.6008   1.5927
 CONDUCTIVITY      2.3400   2.2098
 PRANDTL NUMBER    0.6602   0.6656

 PERFORMANCE PARAMETERS

 Ae/At                      1.0000
 CSTAR, M/SEC               1462.7
 CF                         0.6614
 Ivac, M/SEC                1806.6
 Isp, M/SEC                  967.5


 MASS FRACTIONS

 *CO              0.03368  0.02351
 *CO2             0.21501  0.23099
 *H               0.00007  0.00004
 HO2              0.00004  0.00002
 *H2              0.00051  0.00036
 H2O              0.13511  0.13831
 *NO              0.01497  0.01115
 NO2              0.00003  0.00002
 *N2              0.55186  0.55365
 N2O              0.00001  0.00000
 *O               0.00154  0.00096
 *OH              0.01116  0.00816
 *O2              0.03600  0.03283

  * THERMODYNAMIC PROPERTIES FITTED TO 20000.K

 NOTE. WEIGHT FRACTION OF FUEL IN TOTAL FUELS AND OF OXIDANT IN TOTAL OXIDANTS










              THEORETICAL ROCKET PERFORMANCE ASSUMING EQUILIBRIUM

           COMPOSITION DURING EXPANSION FROM INFINITE AREA COMBUSTOR

 Pin =   476.0 PSIA
 CASE = _______________

             REACTANT                    WT FRACTION      ENERGY      TEMP
                                          (SEE NOTE)     KJ/KG-MOL      K  
 FUEL        C3H8O,2propanol              1.0000000         0.000      0.000
 OXIDANT     N2O                          1.0000000         0.000      0.000

 O/F=    7.20000  %FUEL= 12.195122  R,EQ.RATIO= 0.923287  PHI,EQ.RATIO= 0.915484

                 CHAMBER   THROAT
 Pinf/P            1.0000   1.7433
 P, BAR            32.819   18.826
 T, K             2921.00  2738.15
 RHO, KG/CU M    3.7558 0 2.3176 0
 H, KJ/KG         0.00000  -468.41
 U, KJ/KG         -873.82 -1280.70
 G, KJ/KG        -27461.2 -26210.5
 S, KJ/(KG)(K)     9.4013   9.4013

 M, (1/n)          27.794   28.027
 MW, MOL WT        27.794   28.027
 (dLV/dLP)t      -1.01008 -1.00739
 (dLV/dLT)p        1.2290   1.1797
 Cp, KJ/(KG)(K)    3.2202   2.9423
 GAMMAs            1.1497   1.1533
 SON VEL,M/SEC     1002.3    967.9
 MACH NUMBER        0.000    1.000

 TRANSPORT PROPERTIES (GASES ONLY)
   CONDUCTIVITY IN UNITS OF MILLIWATTS/(CM)(K)

 VISC,MILLIPOISE  0.96565  0.92389

  WITH EQUILIBRIUM REACTIONS

 Cp, KJ/(KG)(K)    3.2202   2.9423
 CONDUCTIVITY      6.0448   5.1342
 PRANDTL NUMBER    0.5144   0.5295

  WITH FROZEN REACTIONS

 Cp, KJ/(KG)(K)    1.6010   1.5929
 CONDUCTIVITY      2.3412   2.2107
 PRANDTL NUMBER    0.6604   0.6657

 PERFORMANCE PARAMETERS

 Ae/At                      1.0000
 CSTAR, M/SEC               1463.1
 CF                         0.6616
 Ivac, M/SEC                1807.1
 Isp, M/SEC                  967.9


 MASS FRACTIONS

 *CO              0.03342  0.02328
 *CO2             0.21542  0.23134
 *H               0.00007  0.00004
 HO2              0.00004  0.00002
 *H2              0.00051  0.00036
 H2O              0.13520  0.13838
 *NO              0.01499  0.01116
 NO2              0.00003  0.00002
 *N2              0.55185  0.55364
 N2O              0.00001  0.00000
 *O               0.00152  0.00094
 *OH              0.01110  0.00810
 *O2              0.03584  0.03269

  * THERMODYNAMIC PROPERTIES FITTED TO 20000.K

 NOTE. WEIGHT FRACTION OF FUEL IN TOTAL FUELS AND OF OXIDANT IN TOTAL OXIDANTS










              THEORETICAL ROCKET PERFORMANCE ASSUMING EQUILIBRIUM

           COMPOSITION DURING EXPANSION FROM INFINITE AREA COMBUSTOR

 Pin =   497.0 PSIA
 CASE = _______________

             REACTANT                    WT FRACTION      ENERGY      TEMP
                                          (SEE NOTE)     KJ/KG-MOL      K  
 FUEL        C3H8O,2propanol              1.0000000         0.000      0.000
 OXIDANT     N2O                          1.0000000         0.000      0.000

 O/F=    7.20000  %FUEL= 12.195122  R,EQ.RATIO= 0.923287  PHI,EQ.RATIO= 0.915484

                 CHAMBER   THROAT
 Pinf/P            1.0000   1.7435
 P, BAR            34.267   19.654
 T, K             2923.68  2740.15
 RHO, KG/CU M    3.9188 0 2.4182 0
 H, KJ/KG         0.00000  -468.80
 U, KJ/KG         -874.43 -1281.53
 G, KJ/KG        -27448.6 -26194.3
 S, KJ/(KG)(K)     9.3884   9.3884

 M, (1/n)          27.800   28.033
 MW, MOL WT        27.800   28.033
 (dLV/dLP)t      -1.01000 -1.00733
 (dLV/dLT)p        1.2271   1.1780
 Cp, KJ/(KG)(K)    3.2064   2.9294
 GAMMAs            1.1500   1.1536
 SON VEL,M/SEC     1002.8    968.3
 MACH NUMBER        0.000    1.000

 TRANSPORT PROPERTIES (GASES ONLY)
   CONDUCTIVITY IN UNITS OF MILLIWATTS/(CM)(K)

 VISC,MILLIPOISE  0.96623  0.92434

  WITH EQUILIBRIUM REACTIONS

 Cp, KJ/(KG)(K)    3.2064   2.9294
 CONDUCTIVITY      6.0100   5.1039
 PRANDTL NUMBER    0.5155   0.5305

  WITH FROZEN REACTIONS

 Cp, KJ/(KG)(K)    1.6012   1.5930
 CONDUCTIVITY      2.3423   2.2116
 PRANDTL NUMBER    0.6605   0.6658

 PERFORMANCE PARAMETERS

 Ae/At                      1.0000
 CSTAR, M/SEC               1463.4
 CF                         0.6617
 Ivac, M/SEC                1807.6
 Isp, M/SEC                  968.3


 MASS FRACTIONS

 *CO              0.03317  0.02306
 *CO2             0.21581  0.23169
 *H               0.00006  0.00004
 HO2              0.00004  0.00002
 *H2              0.00050  0.00036
 H2O              0.13529  0.13845
 *NO              0.01501  0.01117
 NO2              0.00003  0.00002
 *N2              0.55184  0.55364
 N2O              0.00001  0.00000
 *O               0.00150  0.00093
 *OH              0.01103  0.00805
 *O2              0.03569  0.03256

  * THERMODYNAMIC PROPERTIES FITTED TO 20000.K

 NOTE. WEIGHT FRACTION OF FUEL IN TOTAL FUELS AND OF OXIDANT IN TOTAL OXIDANTS










              THEORETICAL ROCKET PERFORMANCE ASSUMING EQUILIBRIUM

           COMPOSITION DURING EXPANSION FROM INFINITE AREA COMBUSTOR

 Pin =   518.0 PSIA
 CASE = _______________

             REACTANT                    WT FRACTION      ENERGY      TEMP
                                          (SEE NOTE)     KJ/KG-MOL      K  
 FUEL        C3H8O,2propanol              1.0000000         0.000      0.000
 OXIDANT     N2O                          1.0000000         0.000      0.000

 O/F=    7.20000  %FUEL= 12.195122  R,EQ.RATIO= 0.923287  PHI,EQ.RATIO= 0.915484

                 CHAMBER   THROAT
 Pinf/P            1.0000   1.7437
 P, BAR            35.715   20.482
 T, K             2926.24  2742.06
 RHO, KG/CU M    4.0817 0 2.5188 0
 H, KJ/KG         0.00000  -469.17
 U, KJ/KG         -875.00 -1282.33
 G, KJ/KG        -27436.4 -26178.7
 S, KJ/(KG)(K)     9.3760   9.3760

 M, (1/n)          27.806   28.038
 MW, MOL WT        27.806   28.038
 (dLV/dLP)t      -1.00993 -1.00726
 (dLV/dLT)p        1.2254   1.1764
 Cp, KJ/(KG)(K)    3.1933   2.9171
 GAMMAs            1.1503   1.1540
 SON VEL,M/SEC     1003.3    968.7
 MACH NUMBER        0.000    1.000

 TRANSPORT PROPERTIES (GASES ONLY)
   CONDUCTIVITY IN UNITS OF MILLIWATTS/(CM)(K)

 VISC,MILLIPOISE  0.96678  0.92476

  WITH EQUILIBRIUM REACTIONS

 Cp, KJ/(KG)(K)    3.1933   2.9171
 CONDUCTIVITY      5.9769   5.0752
 PRANDTL NUMBER    0.5165   0.5315

  WITH FROZEN REACTIONS

 Cp, KJ/(KG)(K)    1.6014   1.5932
 CONDUCTIVITY      2.3435   2.2125
 PRANDTL NUMBER    0.6606   0.6659

 PERFORMANCE PARAMETERS

 Ae/At                      1.0000
 CSTAR, M/SEC               1463.8
 CF                         0.6618
 Ivac, M/SEC                1808.1
 Isp, M/SEC                  968.7


 MASS FRACTIONS

 *CO              0.03293  0.02286
 *CO2             0.21619  0.23201
 *H               0.00006  0.00004
 HO2              0.00004  0.00002
 *H2              0.00050  0.00035
 H2O              0.13537  0.13852
 *NO              0.01503  0.01118
 NO2              0.00003  0.00002
 *N2              0.55183  0.55363
 N2O              0.00001  0.00000
 *O               0.00148  0.00091
 *OH              0.01097  0.00800
 *O2              0.03555  0.03244

  * THERMODYNAMIC PROPERTIES FITTED TO 20000.K

 NOTE. WEIGHT FRACTION OF FUEL IN TOTAL FUELS AND OF OXIDANT IN TOTAL OXIDANTS



